
     RDKit          2D

  8  8  0  0  0  0  0  0  0  0999 V2000
    3.5260   -1.2990    0.0000 C   0  0  0  0  0  0  0  0  0  0  0  0
    2.7760    0.0000    0.0000 C   0  0  0  0  0  0  0  0  0  0  0  0
    3.5260    1.2990    0.0000 O   0  0  0  0  0  0  0  0  0  0  0  0
    1.2760    0.0000    0.0000 C   0  0  0  0  0  0  0  0  0  0  0  0
    0.3943    1.2135    0.0000 C   0  0  0  0  0  0  0  0  0  0  0  0
   -1.0323    0.7500    0.0000 C   0  0  0  0  0  0  0  0  0  0  0  0
   -1.0323   -0.7500    0.0000 C   0  0  0  0  0  0  0  0  0  0  0  0
    0.3943   -1.2135    0.0000 C   0  0  0  0  0  0  0  0  0  0  0  0
  1  2  1  0
  2  3  2  0
  2  4  1  0
  4  5  2  0
  5  6  1  0
  6  7  2  0
  7  8  1  0
  8  4  1  0
M  END
>  <Title>  (1) 
idAAAAgen14

$$$$

     RDKit          2D

  6  6  0  0  0  0  0  0  0  0999 V2000
    1.5000    0.0000    0.0000 C   0  0  0  0  0  0  0  0  0  0  0  0
    0.7500   -1.2990    0.0000 C   0  0  0  0  0  0  0  0  0  0  0  0
   -0.7500   -1.2990    0.0000 C   0  0  0  0  0  0  0  0  0  0  0  0
   -1.5000    0.0000    0.0000 C   0  0  0  0  0  0  0  0  0  0  0  0
   -0.7500    1.2990    0.0000 C   0  0  0  0  0  0  0  0  0  0  0  0
    0.7500    1.2990    0.0000 C   0  0  0  0  0  0  0  0  0  0  0  0
  1  2  2  0
  2  3  1  0
  3  4  2  0
  4  5  1  0
  5  6  2  0
  6  1  1  0
M  END
>  <Title>  (2) 
idAAABgen14

$$$$

     RDKit          2D

  6  5  0  0  0  0  0  0  0  0999 V2000
    0.0000    0.0000    0.0000 C   0  0  0  0  0  0  0  0  0  0  0  0
    1.2990    0.7500    0.0000 C   0  0  0  0  0  0  0  0  0  0  0  0
    2.5981   -0.0000    0.0000 C   0  0  0  0  0  0  0  0  0  0  0  0
    3.8971    0.7500    0.0000 C   0  0  0  0  0  0  0  0  0  0  0  0
    5.1962   -0.0000    0.0000 C   0  0  0  0  0  0  0  0  0  0  0  0
    6.4952   -0.7500    0.0000 N   0  0  0  0  0  0  0  0  0  0  0  0
  1  2  1  0
  2  3  1  0
  3  4  2  3
  4  5  1  0
  5  6  3  0
M  END
>  <Title>  (3) 
idAAACgen14

$$$$

     RDKit          2D

 21 21  0  0  0  0  0  0  0  0999 V2000
    9.5260    3.8971    0.0000 C   0  0  0  0  0  0  0  0  0  0  0  0
    8.0260    3.8971    0.0000 C   0  0  0  0  0  0  0  0  0  0  0  0
    7.2760    2.5981    0.0000 C   0  0  0  0  0  0  0  0  0  0  0  0
    5.7760    2.5981    0.0000 C   0  0  0  0  0  0  0  0  0  0  0  0
    5.0260    1.2990    0.0000 N   0  0  0  0  0  0  0  0  0  0  0  0
    3.5260    1.2990    0.0000 N   0  0  0  0  0  0  0  0  0  0  0  0
    2.7760    0.0000    0.0000 C   0  0  0  0  0  0  0  0  0  0  0  0
    3.5260   -1.2990    0.0000 O   0  0  0  0  0  0  0  0  0  0  0  0
    1.2760    0.0000    0.0000 N   0  0  0  0  0  0  0  0  0  0  0  0
    0.3943    1.2135    0.0000 C   0  0  0  0  0  0  0  0  0  0  0  0
   -1.0323    0.7500    0.0000 C   0  0  0  0  0  0  0  0  0  0  0  0
   -1.0323   -0.7500    0.0000 C   0  0  0  0  0  0  0  0  0  0  0  0
   -2.2458   -1.6317    0.0000 C   0  0  0  0  0  0  0  0  0  0  0  0
   -3.6161   -1.0216    0.0000 C   0  0  0  0  0  0  0  0  0  0  0  0
   -3.7729    0.4702    0.0000 O   0  0  0  0  0  0  0  0  0  0  0  0
   -4.8297   -1.9033    0.0000 N   0  0  0  0  0  0  0  0  0  0  0  0
   -6.2000   -1.2931    0.0000 C   0  0  0  0  0  0  0  0  0  0  0  0
   -7.4135   -2.1748    0.0000 C   0  0  0  0  0  0  0  0  0  0  0  0
   -6.3568    0.1986    0.0000 C   0  0  0  0  0  0  0  0  0  0  0  0
    0.3943   -1.2135    0.0000 C   0  0  0  0  0  0  0  0  0  0  0  0
    0.8578   -2.6401    0.0000 O   0  0  0  0  0  0  0  0  0  0  0  0
  1  2  1  0
  2  3  1  0
  3  4  1  0
  4  5  2  3
  5  6  1  0
  6  7  1  0
  7  8  2  0
  7  9  1  0
  9 10  1  0
 10 11  2  0
 11 12  1  0
 12 13  1  0
 13 14  1  0
 14 15  2  0
 14 16  1  0
 16 17  1  0
 17 18  1  0
 17 19  1  0
 12 20  1  0
 20 21  2  0
 20  9  1  0
M  END
>  <Title>  (4) 
idAAADgen14

$$$$

     RDKit          2D

  8  8  0  0  0  0  0  0  0  0999 V2000
    3.0000    0.0000    0.0000 C   0  0  0  0  0  0  0  0  0  0  0  0
    1.5000    0.0000    0.0000 C   0  0  0  0  0  0  0  0  0  0  0  0
    0.7500   -1.2990    0.0000 C   0  0  0  0  0  0  0  0  0  0  0  0
   -0.7500   -1.2990    0.0000 C   0  0  0  0  0  0  0  0  0  0  0  0
   -1.5000    0.0000    0.0000 C   0  0  0  0  0  0  0  0  0  0  0  0
   -3.0000    0.0000    0.0000 O   0  0  0  0  0  0  0  0  0  0  0  0
   -0.7500    1.2990    0.0000 C   0  0  0  0  0  0  0  0  0  0  0  0
    0.7500    1.2990    0.0000 C   0  0  0  0  0  0  0  0  0  0  0  0
  1  2  1  0
  2  3  2  0
  3  4  1  0
  4  5  2  0
  5  6  1  0
  5  7  1  0
  7  8  2  0
  8  2  1  0
M  END
>  <Title>  (5) 
idAAAEgen14

$$$$

     RDKit          2D

  9  9  0  0  0  0  0  0  0  0999 V2000
    5.0260    1.2990    0.0000 C   0  0  0  0  0  0  0  0  0  0  0  0
    3.5260    1.2990    0.0000 N   0  0  0  0  0  0  0  0  0  0  0  0
    2.7760    0.0000    0.0000 C   0  0  0  0  0  0  0  0  0  0  0  0
    3.5260   -1.2990    0.0000 C   0  0  0  0  0  0  0  0  0  0  0  0
    1.2760    0.0000    0.0000 C   0  0  0  0  0  0  0  0  0  0  0  0
    0.3943    1.2135    0.0000 C   0  0  0  0  0  0  0  0  0  0  0  0
   -1.0323    0.7500    0.0000 C   0  0  0  0  0  0  0  0  0  0  0  0
   -1.0323   -0.7500    0.0000 C   0  0  0  0  0  0  0  0  0  0  0  0
    0.3943   -1.2135    0.0000 C   0  0  0  0  0  0  0  0  0  0  0  0
  1  2  1  0
  2  3  1  0
  3  4  1  0
  3  5  1  0
  5  6  2  0
  6  7  1  0
  7  8  2  0
  8  9  1  0
  9  5  1  0
M  END
>  <Title>  (6) 
idAAAFgen14

$$$$

     RDKit          2D

  9  8  0  0  0  0  0  0  0  0999 V2000
    0.0000    0.0000    0.0000 C   0  0  0  0  0  0  0  0  0  0  0  0
   -0.0000   -1.5000    0.0000 C   0  0  0  0  0  0  0  0  0  0  0  0
   -0.0000   -3.0000    0.0000 C   0  0  0  0  0  0  0  0  0  0  0  0
    1.2990   -3.7500    0.0000 C   0  0  0  0  0  0  0  0  0  0  0  0
    1.2990   -5.2500    0.0000 C   0  0  0  0  0  0  0  0  0  0  0  0
    2.5981   -3.0000    0.0000 N   0  0  0  0  0  0  0  0  0  0  0  0
    3.8971   -3.7500    0.0000 C   0  0  0  0  0  0  0  0  0  0  0  0
    5.1962   -3.0000    0.0000 C   0  0  0  0  0  0  0  0  0  0  0  0
    6.4952   -3.7500    0.0000 C   0  0  0  0  0  0  0  0  0  0  0  0
  1  2  3  0
  2  3  1  0
  3  4  1  0
  4  5  1  0
  4  6  1  0
  6  7  1  0
  7  8  2  3
  8  9  1  0
M  END
>  <Title>  (7) 
idAAAGgen14

$$$$

     RDKit          2D

  8  8  0  0  0  0  0  0  0  0999 V2000
    3.7500   -1.2990    0.0000 C   0  0  0  0  0  0  0  0  0  0  0  0
    3.0000    0.0000    0.0000 C   0  0  0  0  0  0  0  0  0  0  0  0
    1.5000    0.0000    0.0000 C   0  0  0  0  0  0  0  0  0  0  0  0
    0.7500   -1.2990    0.0000 C   0  0  0  0  0  0  0  0  0  0  0  0
   -0.7500   -1.2990    0.0000 C   0  0  0  0  0  0  0  0  0  0  0  0
   -1.5000    0.0000    0.0000 C   0  0  0  0  0  0  0  0  0  0  0  0
   -0.7500    1.2990    0.0000 N   0  0  0  0  0  0  0  0  0  0  0  0
    0.7500    1.2990    0.0000 C   0  0  0  0  0  0  0  0  0  0  0  0
  1  2  2  0
  2  3  1  0
  3  4  2  0
  4  5  1  0
  5  6  2  0
  6  7  1  0
  7  8  2  0
  8  3  1  0
M  END
>  <Title>  (8) 
idAAAHgen14

$$$$

     RDKit          2D

 22 24  0  0  0  0  0  0  0  0999 V2000
   -6.0000   -5.1962    0.0000 C   0  0  0  0  0  0  0  0  0  0  0  0
   -5.2500   -3.8971    0.0000 C   0  0  0  0  0  0  0  0  0  0  0  0
   -3.7500   -3.8971    0.0000 N   0  0  0  0  0  0  0  0  0  0  0  0
   -3.0000   -2.5981    0.0000 C   0  0  0  0  0  0  0  0  0  0  0  0
   -1.5000   -2.5981    0.0000 C   0  0  0  0  0  0  0  0  0  0  0  0
   -0.7500   -3.8971    0.0000 C   0  0  0  0  0  0  0  0  0  0  0  0
    0.7500   -3.8971    0.0000 C   0  0  0  0  0  0  0  0  0  0  0  0
    1.5000   -2.5981    0.0000 C   0  0  0  0  0  0  0  0  0  0  0  0
    3.0000   -2.5981    0.0000 C   0  0  0  0  0  0  0  0  0  0  0  0
    3.7500   -1.2990    0.0000 O   0  0  0  0  0  0  0  0  0  0  0  0
    3.7500   -3.8971    0.0000 C   0  0  0  0  0  0  0  0  0  0  0  0
    3.0000   -5.1962    0.0000 N   0  0  0  0  0  0  0  0  0  0  0  0
    3.7500   -6.4952    0.0000 N   0  0  0  0  0  0  0  0  0  0  0  0
    5.2500   -6.4952    0.0000 N   0  0  0  0  0  0  0  0  0  0  0  0
    6.0000   -5.1962    0.0000 N   0  0  0  0  0  0  0  0  0  0  0  0
    5.2500   -3.8971    0.0000 N   0  0  0  0  0  0  0  0  0  0  0  0
    0.7500   -1.2990    0.0000 C   0  0  0  0  0  0  0  0  0  0  0  0
    1.5000    0.0000    0.0000 C   0  0  0  0  0  0  0  0  0  0  0  0
    0.7500    1.2990    0.0000 C   0  0  0  0  0  0  0  0  0  0  0  0
   -0.7500    1.2990    0.0000 C   0  0  0  0  0  0  0  0  0  0  0  0
   -1.5000    0.0000    0.0000 C   0  0  0  0  0  0  0  0  0  0  0  0
   -0.7500   -1.2990    0.0000 C   0  0  0  0  0  0  0  0  0  0  0  0
  1  2  1  0
  2  3  1  0
  3  4  2  3
  4  5  1  0
  5  6  2  0
  6  7  1  0
  7  8  2  0
  8  9  1  0
  9 10  2  0
  9 11  1  0
 11 12  2  0
 12 13  1  0
 13 14  2  0
 14 15  1  0
 15 16  2  0
  8 17  1  0
 17 18  2  0
 18 19  1  0
 19 20  2  0
 20 21  1  0
 21 22  2  0
 22  5  1  0
 16 11  1  0
 22 17  1  0
M  END
>  <Title>  (9) 
idAAAIgen14

$$$$

     RDKit          2D

  5  5  0  0  0  0  0  0  0  0999 V2000
    1.2760    0.0000    0.0000 C   0  0  0  0  0  0  0  0  0  0  0  0
    0.3943    1.2135    0.0000 C   0  0  0  0  0  0  0  0  0  0  0  0
   -1.0323    0.7500    0.0000 C   0  0  0  0  0  0  0  0  0  0  0  0
   -1.0323   -0.7500    0.0000 C   0  0  0  0  0  0  0  0  0  0  0  0
    0.3943   -1.2135    0.0000 C   0  0  0  0  0  0  0  0  0  0  0  0
  1  2  2  0
  2  3  1  0
  3  4  1  0
  4  5  1  0
  5  1  1  0
M  END
>  <Title>  (10) 
idAAAJgen14

$$$$

     RDKit          2D

 11 11  0  0  0  0  0  0  0  0999 V2000
    7.5000   -2.5981    0.0000 C   0  0  0  0  0  0  0  0  0  0  0  0
    6.0000   -2.5981    0.0000 C   0  0  0  0  0  0  0  0  0  0  0  0
    5.2500   -1.2990    0.0000 C   0  0  0  0  0  0  0  0  0  0  0  0
    3.7500   -1.2990    0.0000 N   0  0  0  0  0  0  0  0  0  0  0  0
    3.0000    0.0000    0.0000 C   0  0  0  0  0  0  0  0  0  0  0  0
    1.5000    0.0000    0.0000 C   0  0  0  0  0  0  0  0  0  0  0  0
    0.7500   -1.2990    0.0000 N   0  0  0  0  0  0  0  0  0  0  0  0
   -0.7500   -1.2990    0.0000 C   0  0  0  0  0  0  0  0  0  0  0  0
   -1.5000    0.0000    0.0000 C   0  0  0  0  0  0  0  0  0  0  0  0
   -0.7500    1.2990    0.0000 C   0  0  0  0  0  0  0  0  0  0  0  0
    0.7500    1.2990    0.0000 C   0  0  0  0  0  0  0  0  0  0  0  0
  1  2  1  0
  2  3  2  3
  3  4  1  0
  4  5  1  0
  5  6  1  0
  6  7  2  0
  7  8  1  0
  8  9  1  0
  9 10  2  0
 10 11  1  0
 11  6  1  0
M  END
>  <Title>  (11) 
idAAAKgen14

$$$$

     RDKit          2D

  5  5  0  0  0  0  0  0  0  0999 V2000
    1.2760    0.0000    0.0000 C   0  0  0  0  0  0  0  0  0  0  0  0
    0.3943    1.2135    0.0000 C   0  0  0  0  0  0  0  0  0  0  0  0
   -1.0323    0.7500    0.0000 C   0  0  0  0  0  0  0  0  0  0  0  0
   -1.0323   -0.7500    0.0000 C   0  0  0  0  0  0  0  0  0  0  0  0
    0.3943   -1.2135    0.0000 C   0  0  0  0  0  0  0  0  0  0  0  0
  1  2  2  0
  2  3  1  0
  3  4  1  0
  4  5  1  0
  5  1  1  0
M  END
>  <Title>  (12) 
idAAALgen14

$$$$

     RDKit          2D

 14 15  0  0  0  0  0  0  0  0999 V2000
    3.0000    0.0000    0.0000 O   0  0  0  0  0  0  0  0  0  0  0  0
    1.5000    0.0000    0.0000 C   0  0  0  0  0  0  0  0  0  0  0  0
    0.7500   -1.2990    0.0000 C   0  0  0  0  0  0  0  0  0  0  0  0
   -0.7500   -1.2990    0.0000 C   0  0  0  0  0  0  0  0  0  0  0  0
   -1.5000    0.0000    0.0000 C   0  0  0  0  0  0  0  0  0  0  0  0
   -3.0000    0.0000    0.0000 N   0  0  0  0  0  0  0  0  0  0  0  0
   -3.7500    1.2990    0.0000 N   0  0  0  0  0  0  0  0  0  0  0  0
   -5.2500    1.2990    0.0000 C   0  0  0  0  0  0  0  0  0  0  0  0
   -6.0000    2.5981    0.0000 F   0  0  0  0  0  0  0  0  0  0  0  0
   -6.0000    0.0000    0.0000 C   0  0  0  0  0  0  0  0  0  0  0  0
   -5.2500   -1.2990    0.0000 C   0  0  0  0  0  0  0  0  0  0  0  0
   -3.7500   -1.2990    0.0000 N   0  0  0  0  0  0  0  0  0  0  0  0
   -0.7500    1.2990    0.0000 C   0  0  0  0  0  0  0  0  0  0  0  0
    0.7500    1.2990    0.0000 C   0  0  0  0  0  0  0  0  0  0  0  0
  1  2  1  0
  2  3  2  0
  3  4  1  0
  4  5  2  0
  5  6  1  0
  6  7  1  0
  7  8  2  0
  8  9  1  0
  8 10  1  0
 10 11  2  0
 11 12  1  0
  5 13  1  0
 13 14  2  0
 14  2  1  0
 12  6  1  0
M  END
>  <Title>  (13) 
idAAAMgen14

$$$$

     RDKit          2D

  6  5  0  0  0  0  0  0  0  0999 V2000
    0.0000    0.0000    0.0000 C   0  0  0  0  0  0  0  0  0  0  0  0
    1.2990    0.7500    0.0000 C   0  0  0  0  0  0  0  0  0  0  0  0
    2.5981   -0.0000    0.0000 C   0  0  0  0  0  0  0  0  0  0  0  0
    3.8971    0.7500    0.0000 C   0  0  0  0  0  0  0  0  0  0  0  0
    5.1962   -0.0000    0.0000 C   0  0  0  0  0  0  0  0  0  0  0  0
    3.8971    2.2500    0.0000 O   0  0  0  0  0  0  0  0  0  0  0  0
  1  2  1  0
  2  3  1  0
  3  4  1  0
  4  5  1  0
  4  6  2  0
M  END
>  <Title>  (14) 
idAAANgen14

$$$$

     RDKit          2D

 17 18  0  0  0  0  0  0  0  0999 V2000
    6.1865    6.4289    0.0000 C   0  0  0  0  0  0  0  0  0  0  0  0
    4.7193    6.1170    0.0000 C   0  0  0  0  0  0  0  0  0  0  0  0
    4.2558    4.6904    0.0000 N   0  0  0  0  0  0  0  0  0  0  0  0
    2.7886    4.3786    0.0000 C   0  0  0  0  0  0  0  0  0  0  0  0
    1.7849    5.4933    0.0000 O   0  0  0  0  0  0  0  0  0  0  0  0
    2.3250    2.9520    0.0000 C   0  0  0  0  0  0  0  0  0  0  0  0
    0.8578    2.6401    0.0000 C   0  0  0  0  0  0  0  0  0  0  0  0
    0.3943    1.2135    0.0000 C   0  0  0  0  0  0  0  0  0  0  0  0
    1.2760    0.0000    0.0000 C   0  0  0  0  0  0  0  0  0  0  0  0
    0.3943   -1.2135    0.0000 C   0  0  0  0  0  0  0  0  0  0  0  0
   -1.0323   -0.7500    0.0000 N   0  0  0  0  0  0  0  0  0  0  0  0
   -1.0323    0.7500    0.0000 N   0  0  0  0  0  0  0  0  0  0  0  0
    3.7156    7.2317    0.0000 C   0  0  0  0  0  0  0  0  0  0  0  0
    2.2238    7.0749    0.0000 C   0  0  0  0  0  0  0  0  0  0  0  0
    1.6137    8.4453    0.0000 C   0  0  0  0  0  0  0  0  0  0  0  0
    2.7285    9.4490    0.0000 C   0  0  0  0  0  0  0  0  0  0  0  0
    4.0275    8.6990    0.0000 C   0  0  0  0  0  0  0  0  0  0  0  0
  1  2  1  0
  2  3  1  0
  3  4  1  0
  4  5  2  0
  4  6  1  0
  6  7  1  0
  7  8  1  0
  8  9  2  0
  9 10  1  0
 10 11  2  0
 11 12  1  0
  2 13  1  0
 13 14  2  0
 14 15  1  0
 15 16  2  0
 16 17  1  0
 12  8  1  0
 17 13  1  0
M  END
>  <Title>  (15) 
idAAAOgen14

$$$$

     RDKit          2D

  9  9  0  0  0  0  0  0  0  0999 V2000
    7.2760   -0.0000    0.0000 C   0  0  0  0  0  0  0  0  0  0  0  0
    5.7760   -0.0000    0.0000 C   0  0  0  0  0  0  0  0  0  0  0  0
    4.2760   -0.0000    0.0000 C   0  0  0  0  0  0  0  0  0  0  0  0
    2.7760    0.0000    0.0000 C   0  0  0  0  0  0  0  0  0  0  0  0
    1.2760    0.0000    0.0000 C   0  0  0  0  0  0  0  0  0  0  0  0
    0.3943    1.2135    0.0000 C   0  0  0  0  0  0  0  0  0  0  0  0
   -1.0323    0.7500    0.0000 C   0  0  0  0  0  0  0  0  0  0  0  0
   -1.0323   -0.7500    0.0000 C   0  0  0  0  0  0  0  0  0  0  0  0
    0.3943   -1.2135    0.0000 C   0  0  0  0  0  0  0  0  0  0  0  0
  1  2  3  0
  2  3  1  0
  3  4  3  0
  4  5  1  0
  5  6  2  0
  6  7  1  0
  7  8  1  0
  8  9  1  0
  9  5  1  0
M  END
>  <Title>  (16) 
idAAAPgen14

$$$$

     RDKit          2D

  8  8  0  0  0  0  0  0  0  0999 V2000
    3.5260   -1.2990    0.0000 C   0  0  0  0  0  0  0  0  0  0  0  0
    2.7760    0.0000    0.0000 C   0  0  0  0  0  0  0  0  0  0  0  0
    3.5260    1.2990    0.0000 C   0  0  0  0  0  0  0  0  0  0  0  0
    1.2760    0.0000    0.0000 C   0  0  0  0  0  0  0  0  0  0  0  0
    0.3943    1.2135    0.0000 C   0  0  0  0  0  0  0  0  0  0  0  0
   -1.0323    0.7500    0.0000 C   0  0  0  0  0  0  0  0  0  0  0  0
   -1.0323   -0.7500    0.0000 N   0  0  0  0  0  0  0  0  0  0  0  0
    0.3943   -1.2135    0.0000 N   0  0  0  0  0  0  0  0  0  0  0  0
  1  2  1  0
  2  3  1  0
  2  4  1  0
  4  5  2  0
  5  6  1  0
  6  7  2  0
  7  8  1  0
  8  4  1  0
M  END
>  <Title>  (17) 
idAAAQgen14

$$$$

     RDKit          2D

 62 65  0  0  0  0  0  0  0  0999 V2000
  -35.5537  -50.1992    0.0000 C   0  0  0  0  0  0  0  0  0  0  0  0
  -34.7843  -48.9115    0.0000 C   0  0  0  0  0  0  0  0  0  0  0  0
  -33.2845  -48.9340    0.0000 C   0  0  0  0  0  0  0  0  0  0  0  0
  -32.5151  -47.6463    0.0000 C   0  0  0  0  0  0  0  0  0  0  0  0
  -33.2456  -46.3362    0.0000 O   0  0  0  0  0  0  0  0  0  0  0  0
  -31.0153  -47.6687    0.0000 N   0  0  0  0  0  0  0  0  0  0  0  0
  -30.2460  -46.3811    0.0000 C   0  0  0  0  0  0  0  0  0  0  0  0
  -29.4766  -45.0934    0.0000 C   0  0  0  0  0  0  0  0  0  0  0  0
  -28.7073  -43.8057    0.0000 C   0  0  0  0  0  0  0  0  0  0  0  0
  -27.9379  -42.5180    0.0000 C   0  0  0  0  0  0  0  0  0  0  0  0
  -27.1686  -41.2304    0.0000 C   0  0  0  0  0  0  0  0  0  0  0  0
  -26.3992  -39.9427    0.0000 C   0  0  0  0  0  0  0  0  0  0  0  0
  -25.6299  -38.6550    0.0000 C   0  0  0  0  0  0  0  0  0  0  0  0
  -24.8605  -37.3674    0.0000 C   0  0  0  0  0  0  0  0  0  0  0  0
  -24.0912  -36.0797    0.0000 C   0  0  0  0  0  0  0  0  0  0  0  0
  -23.3218  -34.7920    0.0000 C   0  0  0  0  0  0  0  0  0  0  0  0
  -22.5525  -33.5043    0.0000 C   0  0  0  0  0  0  0  0  0  0  0  0
  -21.7831  -32.2167    0.0000 C   0  0  0  0  0  0  0  0  0  0  0  0
  -21.0138  -30.9290    0.0000 C   0  0  0  0  0  0  0  0  0  0  0  0
  -20.2444  -29.6413    0.0000 C   0  0  0  0  0  0  0  0  0  0  0  0
  -19.4751  -28.3536    0.0000 C   0  0  0  0  0  0  0  0  0  0  0  0
  -18.7057  -27.0660    0.0000 C   0  0  0  0  0  0  0  0  0  0  0  0
  -17.9364  -25.7783    0.0000 C   0  0  0  0  0  0  0  0  0  0  0  0
  -17.1670  -24.4906    0.0000 C   0  0  0  0  0  0  0  0  0  0  0  0
  -16.3977  -23.2029    0.0000 C   0  0  0  0  0  0  0  0  0  0  0  0
  -15.6283  -21.9153    0.0000 C   0  0  0  0  0  0  0  0  0  0  0  0
  -14.8590  -20.6276    0.0000 C   0  0  0  0  0  0  0  0  0  0  0  0
  -14.0896  -19.3399    0.0000 C   0  0  0  0  0  0  0  0  0  0  0  0
  -13.3203  -18.0523    0.0000 C   0  0  0  0  0  0  0  0  0  0  0  0
  -12.5509  -16.7646    0.0000 C   0  0  0  0  0  0  0  0  0  0  0  0
  -11.7816  -15.4769    0.0000 C   0  0  0  0  0  0  0  0  0  0  0  0
  -11.0122  -14.1892    0.0000 C   0  0  0  0  0  0  0  0  0  0  0  0
  -10.2429  -12.9016    0.0000 C   0  0  0  0  0  0  0  0  0  0  0  0
   -9.4735  -11.6139    0.0000 C   0  0  0  0  0  0  0  0  0  0  0  0
   -8.7042  -10.3262    0.0000 C   0  0  0  0  0  0  0  0  0  0  0  0
   -7.9348   -9.0385    0.0000 C   0  0  0  0  0  0  0  0  0  0  0  0
   -7.1655   -7.7509    0.0000 N   0  0  0  0  0  0  0  0  0  0  0  0
   -5.6715   -7.6164    0.0000 C   0  0  0  0  0  0  0  0  0  0  0  0
   -5.3378   -6.1540    0.0000 C   0  0  0  0  0  0  0  0  0  0  0  0
   -6.6254   -5.3847    0.0000 N   0  0  0  0  0  0  0  0  0  0  0  0
   -6.7599   -3.8907    0.0000 N   0  0  0  0  0  0  0  0  0  0  0  0
   -8.0476   -3.1214    0.0000 N   0  0  0  0  0  0  0  0  0  0  0  0
   -7.7138   -1.6590    0.0000 N   0  0  0  0  0  0  0  0  0  0  0  0
   -6.2198   -1.5245    0.0000 N   0  0  0  0  0  0  0  0  0  0  0  0
   -5.6303   -2.9038    0.0000 C   0  0  0  0  0  0  0  0  0  0  0  0
   -4.1679   -3.2376    0.0000 N   0  0  0  0  0  0  0  0  0  0  0  0
   -3.1476   -2.1380    0.0000 C   0  0  0  0  0  0  0  0  0  0  0  0
   -3.5898   -0.7046    0.0000 O   0  0  0  0  0  0  0  0  0  0  0  0
   -1.6852   -2.4718    0.0000 C   0  0  0  0  0  0  0  0  0  0  0  0
   -1.3515   -3.9342    0.0000 C   0  0  0  0  0  0  0  0  0  0  0  0
   -0.0000   -4.5850    0.0000 C   0  0  0  0  0  0  0  0  0  0  0  0
    1.3515   -3.9342    0.0000 C   0  0  0  0  0  0  0  0  0  0  0  0
    1.6852   -2.4718    0.0000 C   0  0  0  0  0  0  0  0  0  0  0  0
    3.1476   -2.1380    0.0000 C   0  0  0  0  0  0  0  0  0  0  0  0
    0.7500   -1.2990    0.0000 C   0  0  0  0  0  0  0  0  0  0  0  0
    1.5000    0.0000    0.0000 C   0  0  0  0  0  0  0  0  0  0  0  0
    0.7500    1.2990    0.0000 C   0  0  0  0  0  0  0  0  0  0  0  0
   -0.7500    1.2990    0.0000 C   0  0  0  0  0  0  0  0  0  0  0  0
   -1.5000    0.0000    0.0000 C   0  0  0  0  0  0  0  0  0  0  0  0
   -0.7500   -1.2990    0.0000 C   0  0  0  0  0  0  0  0  0  0  0  0
   -7.7550   -6.3716    0.0000 C   0  0  0  0  0  0  0  0  0  0  0  0
   -9.2174   -6.0378    0.0000 O   0  0  0  0  0  0  0  0  0  0  0  0
  1  2  1  0
  2  3  1  0
  3  4  1  0
  4  5  2  0
  4  6  1  0
  6  7  1  0
  7  8  3  0
  8  9  1  0
  9 10  3  0
 10 11  1  0
 11 12  3  0
 12 13  1  0
 13 14  3  0
 14 15  1  0
 15 16  3  0
 16 17  1  0
 17 18  3  0
 18 19  1  0
 19 20  3  0
 20 21  1  0
 21 22  3  0
 22 23  1  0
 23 24  3  0
 24 25  1  0
 25 26  3  0
 26 27  1  0
 27 28  3  0
 28 29  1  0
 29 30  3  0
 30 31  1  0
 31 32  3  0
 32 33  1  0
 33 34  3  0
 34 35  1  0
 35 36  3  0
 36 37  1  0
 37 38  1  0
 38 39  1  0
 39 40  1  0
 40 41  1  0
 41 42  1  0
 42 43  2  0
 43 44  1  0
 44 45  2  0
 45 46  1  0
 46 47  1  0
 47 48  2  0
 47 49  1  0
 49 50  2  0
 50 51  1  0
 51 52  1  0
 52 53  2  0
 53 54  1  0
 53 55  1  0
 55 56  2  0
 56 57  1  0
 57 58  2  0
 58 59  1  0
 59 60  2  0
 40 61  1  0
 61 62  2  0
 61 37  1  0
 45 41  1  0
 60 49  1  0
 60 55  1  0
M  END
>  <Title>  (18) 
idAAARgen14

$$$$

     RDKit          2D

 10 10  0  0  0  0  0  0  0  0999 V2000
    5.2500   -1.2990    0.0000 C   0  0  0  0  0  0  0  0  0  0  0  0
    3.7500   -1.2990    0.0000 N   0  0  0  0  0  0  0  0  0  0  0  0
    3.0000    0.0000    0.0000 C   0  0  0  0  0  0  0  0  0  0  0  0
    1.5000    0.0000    0.0000 C   0  0  0  0  0  0  0  0  0  0  0  0
    0.7500   -1.2990    0.0000 C   0  0  0  0  0  0  0  0  0  0  0  0
   -0.7500   -1.2990    0.0000 C   0  0  0  0  0  0  0  0  0  0  0  0
   -1.5000    0.0000    0.0000 C   0  0  0  0  0  0  0  0  0  0  0  0
   -3.0000    0.0000    0.0000 F   0  0  0  0  0  0  0  0  0  0  0  0
   -0.7500    1.2990    0.0000 C   0  0  0  0  0  0  0  0  0  0  0  0
    0.7500    1.2990    0.0000 C   0  0  0  0  0  0  0  0  0  0  0  0
  1  2  1  0
  2  3  1  0
  3  4  1  0
  4  5  2  0
  5  6  1  0
  6  7  2  0
  7  8  1  0
  7  9  1  0
  9 10  2  0
 10  4  1  0
M  END
>  <Title>  (19) 
idAAASgen14

$$$$

     RDKit          2D

 27 30  0  0  0  0  0  0  0  0999 V2000
   -6.0963   -6.4548    0.0000 C   0  0  0  0  0  0  0  0  0  0  0  0
   -4.9472   -5.4906    0.0000 C   0  0  0  0  0  0  0  0  0  0  0  0
   -3.7981   -4.5264    0.0000 C   0  0  0  0  0  0  0  0  0  0  0  0
   -2.6491   -3.5623    0.0000 C   0  0  0  0  0  0  0  0  0  0  0  0
   -1.5000   -2.5981    0.0000 C   0  0  0  0  0  0  0  0  0  0  0  0
   -2.6491   -1.6339    0.0000 N   0  0  0  0  0  0  0  0  0  0  0  0
   -4.0586   -2.1469    0.0000 C   0  0  0  0  0  0  0  0  0  0  0  0
   -4.6925   -3.5064    0.0000 N   0  0  0  0  0  0  0  0  0  0  0  0
   -6.0520   -2.8725    0.0000 N   0  0  0  0  0  0  0  0  0  0  0  0
   -5.4181   -1.5130    0.0000 N   0  0  0  0  0  0  0  0  0  0  0  0
   -5.9311   -0.1035    0.0000 C   0  0  0  0  0  0  0  0  0  0  0  0
   -7.4083    0.1570    0.0000 C   0  0  0  0  0  0  0  0  0  0  0  0
   -7.9213    1.5666    0.0000 C   0  0  0  0  0  0  0  0  0  0  0  0
   -6.9572    2.7156    0.0000 C   0  0  0  0  0  0  0  0  0  0  0  0
   -7.4702    4.1252    0.0000 O   0  0  0  0  0  0  0  0  0  0  0  0
   -5.4799    2.4551    0.0000 C   0  0  0  0  0  0  0  0  0  0  0  0
   -4.9669    1.0456    0.0000 C   0  0  0  0  0  0  0  0  0  0  0  0
   -0.7500   -3.8971    0.0000 C   0  0  0  0  0  0  0  0  0  0  0  0
   -1.5000   -5.1962    0.0000 O   0  0  0  0  0  0  0  0  0  0  0  0
    0.7500   -3.8971    0.0000 C   0  0  0  0  0  0  0  0  0  0  0  0
    1.5000   -2.5981    0.0000 C   0  0  0  0  0  0  0  0  0  0  0  0
    0.7500   -1.2990    0.0000 C   0  0  0  0  0  0  0  0  0  0  0  0
    1.5000    0.0000    0.0000 N   0  0  0  0  0  0  0  0  0  0  0  0
    0.7500    1.2990    0.0000 C   0  0  0  0  0  0  0  0  0  0  0  0
   -0.7500    1.2990    0.0000 C   0  0  0  0  0  0  0  0  0  0  0  0
   -1.5000    0.0000    0.0000 C   0  0  0  0  0  0  0  0  0  0  0  0
   -0.7500   -1.2990    0.0000 C   0  0  0  0  0  0  0  0  0  0  0  0
  1  2  3  0
  2  3  1  0
  3  4  3  0
  4  5  1  0
  5  6  1  0
  6  7  1  0
  7  8  2  0
  8  9  1  0
  9 10  1  0
 10 11  1  0
 11 12  2  0
 12 13  1  0
 13 14  2  0
 14 15  1  0
 14 16  1  0
 16 17  2  0
  5 18  1  0
 18 19  2  0
 18 20  1  0
 20 21  1  0
 21 22  1  0
 22 23  2  0
 23 24  1  0
 24 25  2  0
 25 26  1  0
 26 27  2  0
 27  5  1  0
 10  7  1  0
 17 11  1  0
 27 22  1  0
M  END
>  <Title>  (20) 
idAAATgen14

$$$$

     RDKit          2D

  6  6  0  0  0  0  0  0  0  0999 V2000
    1.5000    0.0000    0.0000 C   0  0  0  0  0  0  0  0  0  0  0  0
    0.7500   -1.2990    0.0000 C   0  0  0  0  0  0  0  0  0  0  0  0
   -0.7500   -1.2990    0.0000 S   0  0  0  0  0  4  0  0  0  0  0  0
   -1.5000    0.0000    0.0000 C   0  0  0  0  0  0  0  0  0  0  0  0
   -0.7500    1.2990    0.0000 C   0  0  0  0  0  0  0  0  0  0  0  0
    0.7500    1.2990    0.0000 C   0  0  0  0  0  0  0  0  0  0  0  0
  1  2  2  0
  2  3  1  0
  3  4  2  0
  4  5  1  0
  5  6  1  0
  6  1  1  0
M  END
>  <Title>  (21) 
idAAAUgen14

$$$$

     RDKit          2D

  7  6  0  0  0  0  0  0  0  0999 V2000
    0.0000    0.0000    0.0000 C   0  0  0  0  0  0  0  0  0  0  0  0
    1.2990    0.7500    0.0000 C   0  0  0  0  0  0  0  0  0  0  0  0
    2.5981   -0.0000    0.0000 C   0  0  0  0  0  0  0  0  0  0  0  0
    3.8971    0.7500    0.0000 C   0  0  0  0  0  0  0  0  0  0  0  0
    3.8971    2.2500    0.0000 O   0  0  0  0  0  0  0  0  0  0  0  0
    5.1962   -0.0000    0.0000 C   0  0  0  0  0  0  0  0  0  0  0  0
    6.4952    0.7500    0.0000 C   0  0  0  0  0  0  0  0  0  0  0  0
  1  2  1  0
  2  3  1  0
  3  4  1  0
  4  5  2  0
  4  6  1  0
  6  7  1  0
M  END
>  <Title>  (22) 
idAAAVgen14

$$$$

     RDKit          2D

 19 21  0  0  0  0  0  0  0  0999 V2000
   -7.9807   -2.8825    0.0000 C   0  0  0  0  0  0  0  0  0  0  0  0
   -6.4827   -2.9610    0.0000 C   0  0  0  0  0  0  0  0  0  0  0  0
   -5.8017   -4.2975    0.0000 N   0  0  0  0  0  0  0  0  0  0  0  0
   -6.4827   -5.6340    0.0000 N   0  0  0  0  0  0  0  0  0  0  0  0
   -5.4221   -6.6946    0.0000 N   0  0  0  0  0  0  0  0  0  0  0  0
   -4.0856   -6.0137    0.0000 N   0  0  0  0  0  0  0  0  0  0  0  0
   -4.3202   -4.5321    0.0000 C   0  0  0  0  0  0  0  0  0  0  0  0
   -3.2595   -3.4715    0.0000 N   0  0  0  0  0  0  0  0  0  0  0  0
   -1.8107   -3.8597    0.0000 C   0  0  0  0  0  0  0  0  0  0  0  0
   -1.4224   -5.3086    0.0000 O   0  0  0  0  0  0  0  0  0  0  0  0
   -0.7500   -2.7990    0.0000 C   0  0  0  0  0  0  0  0  0  0  0  0
    0.7500   -2.7990    0.0000 C   0  0  0  0  0  0  0  0  0  0  0  0
    1.8107   -3.8597    0.0000 C   0  0  0  0  0  0  0  0  0  0  0  0
    0.7500   -1.2990    0.0000 C   0  0  0  0  0  0  0  0  0  0  0  0
    1.5000    0.0000    0.0000 C   0  0  0  0  0  0  0  0  0  0  0  0
    0.7500    1.2990    0.0000 C   0  0  0  0  0  0  0  0  0  0  0  0
   -0.7500    1.2990    0.0000 C   0  0  0  0  0  0  0  0  0  0  0  0
   -1.5000    0.0000    0.0000 C   0  0  0  0  0  0  0  0  0  0  0  0
   -0.7500   -1.2990    0.0000 C   0  0  0  0  0  0  0  0  0  0  0  0
  1  2  1  0
  2  3  1  0
  3  4  1  0
  4  5  2  0
  5  6  1  0
  6  7  2  0
  7  8  1  0
  8  9  1  0
  9 10  2  0
  9 11  1  0
 11 12  2  0
 12 13  1  0
 12 14  1  0
 14 15  2  0
 15 16  1  0
 16 17  2  0
 17 18  1  0
 18 19  2  0
  7  3  1  0
 19 11  1  0
 19 14  1  0
M  END
>  <Title>  (23) 
idAAAWgen14

$$$$

     RDKit          2D

 12 12  0  0  0  0  0  0  0  0999 V2000
    8.2500   -3.8971    0.0000 C   0  0  0  0  0  0  0  0  0  0  0  0
    7.5000   -2.5981    0.0000 N   0  0  0  0  0  0  0  0  0  0  0  0
    6.0000   -2.5981    0.0000 C   0  0  0  0  0  0  0  0  0  0  0  0
    5.2500   -1.2990    0.0000 C   0  0  0  0  0  0  0  0  0  0  0  0
    3.7500   -1.2990    0.0000 C   0  0  0  0  0  0  0  0  0  0  0  0
    3.0000    0.0000    0.0000 C   0  0  0  0  0  0  0  0  0  0  0  0
    1.5000    0.0000    0.0000 C   0  0  0  0  0  0  0  0  0  0  0  0
    0.7500   -1.2990    0.0000 C   0  0  0  0  0  0  0  0  0  0  0  0
   -0.7500   -1.2990    0.0000 C   0  0  0  0  0  0  0  0  0  0  0  0
   -1.5000    0.0000    0.0000 C   0  0  0  0  0  0  0  0  0  0  0  0
   -0.7500    1.2990    0.0000 N   0  0  0  0  0  0  0  0  0  0  0  0
    0.7500    1.2990    0.0000 N   0  0  0  0  0  0  0  0  0  0  0  0
  1  2  1  0
  2  3  1  0
  3  4  1  0
  4  5  1  0
  5  6  1  0
  6  7  1  0
  7  8  1  0
  8  9  2  0
  9 10  1  0
 10 11  1  0
 11 12  2  0
 12  7  1  0
M  END
>  <Title>  (24) 
idAAAXgen14

$$$$

     RDKit          2D

  4  3  0  0  0  0  0  0  0  0999 V2000
    0.0000    0.0000    0.0000 C   0  0  0  0  0  0  0  0  0  0  0  0
    1.2990    0.7500    0.0000 C   0  0  0  0  0  0  0  0  0  0  0  0
    2.5981   -0.0000    0.0000 C   0  0  0  0  0  0  0  0  0  0  0  0
    3.8971    0.7500    0.0000 C   0  0  0  0  0  0  0  0  0  0  0  0
  1  2  1  0
  2  3  2  3
  3  4  1  0
M  END
>  <Title>  (25) 
idAAAYgen14

$$$$

     RDKit          2D

  6  6  0  0  0  0  0  0  0  0999 V2000
    2.7760    0.0000    0.0000 O   0  0  0  0  0  0  0  0  0  0  0  0
    1.2760    0.0000    0.0000 C   0  0  0  0  0  0  0  0  0  0  0  0
    0.3943    1.2135    0.0000 C   0  0  0  0  0  0  0  0  0  0  0  0
   -1.0323    0.7500    0.0000 C   0  0  0  0  0  0  0  0  0  0  0  0
   -1.0323   -0.7500    0.0000 C   0  0  0  0  0  0  0  0  0  0  0  0
    0.3943   -1.2135    0.0000 C   0  0  0  0  0  0  0  0  0  0  0  0
  1  2  1  0
  2  3  2  0
  3  4  1  0
  4  5  2  0
  5  6  1  0
  6  2  1  0
M  END
>  <Title>  (26) 
idAAAZgen14

$$$$

     RDKit          2D

 48 53  0  0  0  0  0  0  0  0999 V2000
  -10.6766    4.5918    0.0000 C   0  0  0  0  0  0  0  0  0  0  0  0
  -10.5645    3.0960    0.0000 C   0  0  0  0  0  0  0  0  0  0  0  0
   -9.2131    2.4452    0.0000 C   0  0  0  0  0  0  0  0  0  0  0  0
   -9.1010    0.9494    0.0000 N   0  0  0  0  0  0  0  0  0  0  0  0
   -7.7495    0.2986    0.0000 C   0  0  0  0  0  0  0  0  0  0  0  0
   -6.5102    1.1435    0.0000 O   0  0  0  0  0  0  0  0  0  0  0  0
   -7.6374   -1.1973    0.0000 C   0  0  0  0  0  0  0  0  0  0  0  0
   -6.2860   -1.8481    0.0000 C   0  0  0  0  0  0  0  0  0  0  0  0
   -6.2860   -3.3481    0.0000 C   0  0  0  0  0  0  0  0  0  0  0  0
   -5.1132   -4.2833    0.0000 C   0  0  0  0  0  0  0  0  0  0  0  0
   -3.6508   -3.9495    0.0000 C   0  0  0  0  0  0  0  0  0  0  0  0
   -3.0000   -2.5981    0.0000 C   0  0  0  0  0  0  0  0  0  0  0  0
   -1.5000   -2.5981    0.0000 C   0  0  0  0  0  0  0  0  0  0  0  0
   -0.7500   -3.8971    0.0000 N   0  0  0  0  0  0  0  0  0  0  0  0
    0.7500   -3.8971    0.0000 N   0  0  0  0  0  0  0  0  0  0  0  0
    1.5000   -2.5981    0.0000 C   0  0  0  0  0  0  0  0  0  0  0  0
    3.0000   -2.5981    0.0000 O   0  0  0  0  0  0  0  0  0  0  0  0
    3.7500   -3.8971    0.0000 C   0  0  0  0  0  0  0  0  0  0  0  0
    3.0000   -5.1962    0.0000 O   0  0  0  0  0  0  0  0  0  0  0  0
    5.2500   -3.8971    0.0000 N   0  0  0  0  0  0  0  0  0  0  0  0
    6.0000   -5.1962    0.0000 C   0  0  0  0  0  0  0  0  0  0  0  0
    5.3899   -6.5665    0.0000 N   0  0  0  0  0  0  0  0  0  0  0  0
    6.5046   -7.5702    0.0000 N   0  0  0  0  0  0  0  0  0  0  0  0
    7.8037   -6.8202    0.0000 N   0  0  0  0  0  0  0  0  0  0  0  0
    7.4918   -5.3529    0.0000 N   0  0  0  0  0  0  0  0  0  0  0  0
    8.4955   -4.2382    0.0000 C   0  0  0  0  0  0  0  0  0  0  0  0
    8.1836   -2.7710    0.0000 C   0  0  0  0  0  0  0  0  0  0  0  0
    9.4826   -2.0210    0.0000 C   0  0  0  0  0  0  0  0  0  0  0  0
   10.5974   -3.0247    0.0000 C   0  0  0  0  0  0  0  0  0  0  0  0
   12.0646   -2.7128    0.0000 C   0  0  0  0  0  0  0  0  0  0  0  0
   13.0683   -3.8276    0.0000 O   0  0  0  0  0  0  0  0  0  0  0  0
   12.5281   -1.2863    0.0000 N   0  0  0  0  0  0  0  0  0  0  0  0
   11.5244   -0.1715    0.0000 C   0  0  0  0  0  0  0  0  0  0  0  0
   11.9879    1.2551    0.0000 N   0  0  0  0  0  0  0  0  0  0  0  0
   10.9842    2.3698    0.0000 N   0  0  0  0  0  0  0  0  0  0  0  0
    9.5170    2.0579    0.0000 N   0  0  0  0  0  0  0  0  0  0  0  0
    9.0535    0.6313    0.0000 N   0  0  0  0  0  0  0  0  0  0  0  0
   10.0572   -0.4834    0.0000 N   0  0  0  0  0  0  0  0  0  0  0  0
    9.9873   -4.3950    0.0000 C   0  0  0  0  0  0  0  0  0  0  0  0
   10.7373   -5.6941    0.0000 O   0  0  0  0  0  0  0  0  0  0  0  0
    0.7500   -1.2990    0.0000 C   0  0  0  0  0  0  0  0  0  0  0  0
    1.5000    0.0000    0.0000 C   0  0  0  0  0  0  0  0  0  0  0  0
    0.7500    1.2990    0.0000 C   0  0  0  0  0  0  0  0  0  0  0  0
   -0.7500    1.2990    0.0000 C   0  0  0  0  0  0  0  0  0  0  0  0
   -1.5000    0.0000    0.0000 C   0  0  0  0  0  0  0  0  0  0  0  0
   -0.7500   -1.2990    0.0000 C   0  0  0  0  0  0  0  0  0  0  0  0
   -3.6508   -1.2466    0.0000 C   0  0  0  0  0  0  0  0  0  0  0  0
   -5.1132   -0.9128    0.0000 C   0  0  0  0  0  0  0  0  0  0  0  0
  1  2  1  0
  2  3  2  3
  3  4  1  0
  4  5  1  0
  5  6  2  0
  5  7  1  0
  7  8  1  0
  8  9  2  0
  9 10  1  0
 10 11  1  0
 11 12  1  0
 12 13  1  0
 13 14  2  0
 14 15  1  0
 15 16  2  0
 16 17  1  0
 17 18  1  0
 18 19  2  0
 18 20  1  0
 20 21  1  0
 21 22  2  0
 22 23  1  0
 23 24  2  0
 24 25  1  0
 25 26  1  0
 26 27  2  0
 27 28  1  0
 28 29  2  0
 29 30  1  0
 30 31  2  0
 30 32  1  0
 32 33  1  0
 33 34  2  0
 34 35  1  0
 35 36  2  0
 36 37  1  0
 37 38  2  0
 29 39  1  0
 39 40  2  0
 16 41  1  0
 41 42  2  0
 42 43  1  0
 43 44  2  0
 44 45  1  0
 45 46  2  0
 12 47  1  0
 47 48  2  0
 48  8  1  0
 46 13  1  0
 25 21  1  0
 39 26  1  0
 46 41  1  0
 38 33  1  0
M  END
>  <Title>  (27) 
idAABAgen14

$$$$

     RDKit          2D

  7  7  0  0  0  0  0  0  0  0999 V2000
    3.0000    0.0000    0.0000 C   0  0  0  0  0  0  0  0  0  0  0  0
    1.5000    0.0000    0.0000 C   0  0  0  0  0  0  0  0  0  0  0  0
    0.7500   -1.2990    0.0000 C   0  0  0  0  0  0  0  0  0  0  0  0
   -0.7500   -1.2990    0.0000 C   0  0  0  0  0  0  0  0  0  0  0  0
   -1.5000    0.0000    0.0000 C   0  0  0  0  0  0  0  0  0  0  0  0
   -0.7500    1.2990    0.0000 N   0  0  0  0  0  0  0  0  0  0  0  0
    0.7500    1.2990    0.0000 C   0  0  0  0  0  0  0  0  0  0  0  0
  1  2  1  0
  2  3  2  0
  3  4  1  0
  4  5  2  0
  5  6  1  0
  6  7  2  0
  7  2  1  0
M  END
>  <Title>  (28) 
idAABBgen14

$$$$

     RDKit          2D

 12 11  0  0  0  0  0  0  0  0999 V2000
    0.0000    0.0000    0.0000 C   0  0  0  0  0  0  0  0  0  0  0  0
    1.2990    0.7500    0.0000 C   0  0  0  0  0  0  0  0  0  0  0  0
    2.5981   -0.0000    0.0000 C   0  0  0  0  0  0  0  0  0  0  0  0
    3.8971    0.7500    0.0000 C   0  0  0  0  0  0  0  0  0  0  0  0
    3.8971    2.2500    0.0000 O   0  0  0  0  0  0  0  0  0  0  0  0
    5.1962   -0.0000    0.0000 N   0  0  0  0  0  0  0  0  0  0  0  0
    6.4952    0.7500    0.0000 N   0  0  0  0  0  0  0  0  0  0  0  0
    7.7942   -0.0000    0.0000 C   0  0  0  0  0  0  0  0  0  0  0  0
    9.0933    0.7500    0.0000 C   0  0  0  0  0  0  0  0  0  0  0  0
    7.7942   -1.5000    0.0000 C   0  0  0  0  0  0  0  0  0  0  0  0
    9.0933   -2.2500    0.0000 C   0  0  0  0  0  0  0  0  0  0  0  0
    9.0933   -3.7500    0.0000 C   0  0  0  0  0  0  0  0  0  0  0  0
  1  2  1  0
  2  3  1  0
  3  4  1  0
  4  5  2  0
  4  6  1  0
  6  7  1  0
  7  8  1  0
  8  9  1  0
  8 10  1  0
 10 11  1  0
 11 12  1  0
M  END
>  <Title>  (29) 
idAABCgen14

$$$$

     RDKit          2D

  7  7  0  0  0  0  0  0  0  0999 V2000
    3.0000    0.0000    0.0000 C   0  0  0  0  0  0  0  0  0  0  0  0
    1.5000    0.0000    0.0000 C   0  0  0  0  0  0  0  0  0  0  0  0
    0.7500   -1.2990    0.0000 C   0  0  0  0  0  0  0  0  0  0  0  0
   -0.7500   -1.2990    0.0000 C   0  0  0  0  0  0  0  0  0  0  0  0
   -1.5000    0.0000    0.0000 C   0  0  0  0  0  0  0  0  0  0  0  0
   -0.7500    1.2990    0.0000 N   0  0  0  0  0  0  0  0  0  0  0  0
    0.7500    1.2990    0.0000 C   0  0  0  0  0  0  0  0  0  0  0  0
  1  2  1  0
  2  3  2  0
  3  4  1  0
  4  5  2  0
  5  6  1  0
  6  7  2  0
  7  2  1  0
M  END
>  <Title>  (30) 
idAABDgen14

$$$$

     RDKit          2D

 10 10  0  0  0  0  0  0  0  0999 V2000
    6.7500   -1.2990    0.0000 C   0  0  0  0  0  0  0  0  0  0  0  0
    6.0000    0.0000    0.0000 C   0  0  0  0  0  0  0  0  0  0  0  0
    4.5000    0.0000    0.0000 C   0  0  0  0  0  0  0  0  0  0  0  0
    3.0000    0.0000    0.0000 C   0  0  0  0  0  0  0  0  0  0  0  0
    1.5000    0.0000    0.0000 C   0  0  0  0  0  0  0  0  0  0  0  0
    0.7500   -1.2990    0.0000 C   0  0  0  0  0  0  0  0  0  0  0  0
   -0.7500   -1.2990    0.0000 C   0  0  0  0  0  0  0  0  0  0  0  0
   -1.5000    0.0000    0.0000 C   0  0  0  0  0  0  0  0  0  0  0  0
   -0.7500    1.2990    0.0000 N   0  0  0  0  0  0  0  0  0  0  0  0
    0.7500    1.2990    0.0000 C   0  0  0  0  0  0  0  0  0  0  0  0
  1  2  2  0
  2  3  1  0
  3  4  3  0
  4  5  1  0
  5  6  2  0
  6  7  1  0
  7  8  2  0
  8  9  1  0
  9 10  2  0
 10  5  1  0
M  END
>  <Title>  (31) 
idAABEgen14

$$$$

     RDKit          2D

 25 28  0  0  0  0  0  0  0  0999 V2000
   -3.7500   -3.8971    0.0000 C   0  0  0  0  0  0  0  0  0  0  0  0
   -3.0000   -2.5981    0.0000 C   0  0  0  0  0  0  0  0  0  0  0  0
   -1.5000   -2.5981    0.0000 C   0  0  0  0  0  0  0  0  0  0  0  0
   -0.7500   -3.8971    0.0000 C   0  0  0  0  0  0  0  0  0  0  0  0
    0.7500   -3.8971    0.0000 C   0  0  0  0  0  0  0  0  0  0  0  0
    1.5000   -2.5981    0.0000 C   0  0  0  0  0  0  0  0  0  0  0  0
    3.0000   -2.5981    0.0000 C   0  0  0  0  0  0  0  0  0  0  0  0
    3.7500   -1.2990    0.0000 O   0  0  0  0  0  0  0  0  0  0  0  0
    3.7500   -3.8971    0.0000 N   0  0  0  0  0  0  0  0  0  0  0  0
    5.2500   -3.8971    0.0000 C   0  0  0  0  0  0  0  0  0  0  0  0
    6.1317   -2.6836    0.0000 N   0  0  0  0  0  0  0  0  0  0  0  0
    7.5583   -3.1471    0.0000 N   0  0  0  0  0  0  0  0  0  0  0  0
    7.5583   -4.6471    0.0000 N   0  0  0  0  0  0  0  0  0  0  0  0
    6.1317   -5.1106    0.0000 N   0  0  0  0  0  0  0  0  0  0  0  0
    5.6682   -6.5372    0.0000 N   0  0  0  0  0  0  0  0  0  0  0  0
    6.5498   -7.7508    0.0000 C   0  0  0  0  0  0  0  0  0  0  0  0
    5.6682   -8.9643    0.0000 C   0  0  0  0  0  0  0  0  0  0  0  0
    4.2416   -8.5008    0.0000 N   0  0  0  0  0  0  0  0  0  0  0  0
    4.2416   -7.0008    0.0000 C   0  0  0  0  0  0  0  0  0  0  0  0
    0.7500   -1.2990    0.0000 C   0  0  0  0  0  0  0  0  0  0  0  0
    1.5000    0.0000    0.0000 C   0  0  0  0  0  0  0  0  0  0  0  0
    0.7500    1.2990    0.0000 C   0  0  0  0  0  0  0  0  0  0  0  0
   -0.7500    1.2990    0.0000 C   0  0  0  0  0  0  0  0  0  0  0  0
   -1.5000    0.0000    0.0000 C   0  0  0  0  0  0  0  0  0  0  0  0
   -0.7500   -1.2990    0.0000 C   0  0  0  0  0  0  0  0  0  0  0  0
  1  2  1  0
  2  3  1  0
  3  4  2  0
  4  5  1  0
  5  6  2  0
  6  7  1  0
  7  8  2  0
  7  9  1  0
  9 10  1  0
 10 11  2  0
 11 12  1  0
 12 13  2  0
 13 14  1  0
 14 15  1  0
 15 16  1  0
 16 17  1  0
 17 18  2  0
 18 19  1  0
  6 20  1  0
 20 21  2  0
 21 22  1  0
 22 23  2  0
 23 24  1  0
 24 25  2  0
 25  3  1  0
 14 10  1  0
 19 15  1  0
 25 20  1  0
M  END
>  <Title>  (32) 
idAABFgen14

$$$$

     RDKit          2D

  8  8  0  0  0  0  0  0  0  0999 V2000
    5.7760   -0.0000    0.0000 C   0  0  0  0  0  0  0  0  0  0  0  0
    4.2760   -0.0000    0.0000 C   0  0  0  0  0  0  0  0  0  0  0  0
    2.7760    0.0000    0.0000 C   0  0  0  0  0  0  0  0  0  0  0  0
    1.2760    0.0000    0.0000 C   0  0  0  0  0  0  0  0  0  0  0  0
    0.3943    1.2135    0.0000 N   0  0  0  0  0  0  0  0  0  0  0  0
   -1.0323    0.7500    0.0000 C   0  0  0  0  0  0  0  0  0  0  0  0
   -1.0323   -0.7500    0.0000 C   0  0  0  0  0  0  0  0  0  0  0  0
    0.3943   -1.2135    0.0000 C   0  0  0  0  0  0  0  0  0  0  0  0
  1  2  1  0
  2  3  3  0
  3  4  1  0
  4  5  2  0
  5  6  1  0
  6  7  2  0
  7  8  1  0
  8  4  1  0
M  END
>  <Title>  (33) 
idAABGgen14

$$$$

     RDKit          2D

  7  6  0  0  0  0  0  0  0  0999 V2000
    0.0000    0.0000    0.0000 C   0  0  0  0  0  0  0  0  0  0  0  0
    1.2990    0.7500    0.0000 C   0  0  0  0  0  0  0  0  0  0  0  0
    1.2990    2.2500    0.0000 O   0  0  0  0  0  0  0  0  0  0  0  0
    2.5981   -0.0000    0.0000 C   0  0  0  0  0  0  0  0  0  0  0  0
    3.8971    0.7500    0.0000 C   0  0  0  0  0  0  0  0  0  0  0  0
    5.1962   -0.0000    0.0000 C   0  0  0  0  0  0  0  0  0  0  0  0
    3.8971    2.2500    0.0000 C   0  0  0  0  0  0  0  0  0  0  0  0
  1  2  1  0
  2  3  2  0
  2  4  1  0
  4  5  1  0
  5  6  1  0
  5  7  1  0
M  END
>  <Title>  (34) 
idAABHgen14

$$$$

     RDKit          2D

 12 12  0  0  0  0  0  0  0  0999 V2000
    7.5000   -2.5981    0.0000 C   0  0  0  0  0  0  0  0  0  0  0  0
    6.0000   -2.5981    0.0000 C   0  0  0  0  0  0  0  0  0  0  0  0
    5.2500   -3.8971    0.0000 C   0  0  0  0  0  0  0  0  0  0  0  0
    5.2500   -1.2990    0.0000 N   0  0  0  0  0  0  0  0  0  0  0  0
    3.7500   -1.2990    0.0000 C   0  0  0  0  0  0  0  0  0  0  0  0
    3.0000    0.0000    0.0000 C   0  0  0  0  0  0  0  0  0  0  0  0
    1.5000    0.0000    0.0000 C   0  0  0  0  0  0  0  0  0  0  0  0
    0.7500   -1.2990    0.0000 C   0  0  0  0  0  0  0  0  0  0  0  0
   -0.7500   -1.2990    0.0000 C   0  0  0  0  0  0  0  0  0  0  0  0
   -1.5000    0.0000    0.0000 C   0  0  0  0  0  0  0  0  0  0  0  0
   -0.7500    1.2990    0.0000 N   0  0  0  0  0  0  0  0  0  0  0  0
    0.7500    1.2990    0.0000 C   0  0  0  0  0  0  0  0  0  0  0  0
  1  2  1  0
  2  3  1  0
  2  4  1  0
  4  5  1  0
  5  6  1  0
  6  7  1  0
  7  8  2  0
  8  9  1  0
  9 10  2  0
 10 11  1  0
 11 12  2  0
 12  7  1  0
M  END
>  <Title>  (35) 
idAABIgen14

$$$$

     RDKit          2D

  7  7  0  0  0  0  0  0  0  0999 V2000
    3.0000    0.0000    0.0000 C   0  0  0  0  0  0  0  0  0  0  0  0
    1.5000    0.0000    0.0000 C   0  0  0  0  0  0  0  0  0  0  0  0
    0.7500   -1.2990    0.0000 C   0  0  0  0  0  0  0  0  0  0  0  0
   -0.7500   -1.2990    0.0000 C   0  0  0  0  0  0  0  0  0  0  0  0
   -1.5000    0.0000    0.0000 C   0  0  0  0  0  0  0  0  0  0  0  0
   -0.7500    1.2990    0.0000 N   0  0  0  0  0  0  0  0  0  0  0  0
    0.7500    1.2990    0.0000 C   0  0  0  0  0  0  0  0  0  0  0  0
  1  2  1  0
  2  3  2  0
  3  4  1  0
  4  5  2  0
  5  6  1  0
  6  7  2  0
  7  2  1  0
M  END
>  <Title>  (36) 
idAABJgen14

$$$$

     RDKit          2D

  8  7  0  0  0  0  0  0  0  0999 V2000
    0.0000    0.0000    0.0000 C   0  0  0  0  0  0  0  0  0  0  0  0
    1.2990    0.7500    0.0000 N   0  0  0  0  0  0  0  0  0  0  0  0
    2.5981   -0.0000    0.0000 C   0  0  0  0  0  0  0  0  0  0  0  0
    3.8971    0.7500    0.0000 C   0  0  0  0  0  0  0  0  0  0  0  0
    5.1962   -0.0000    0.0000 C   0  0  0  0  0  0  0  0  0  0  0  0
    6.4952    0.7500    0.0000 C   0  0  0  0  0  0  0  0  0  0  0  0
    7.7942   -0.0000    0.0000 C   0  0  0  0  0  0  0  0  0  0  0  0
    6.4952    2.2500    0.0000 C   0  0  0  0  0  0  0  0  0  0  0  0
  1  2  1  0
  2  3  1  0
  3  4  1  0
  4  5  1  0
  5  6  1  0
  6  7  1  0
  6  8  1  0
M  END
>  <Title>  (37) 
idAABKgen14

$$$$

     RDKit          2D

  9  9  0  0  0  0  0  0  0  0999 V2000
    6.0000    0.0000    0.0000 C   0  0  0  0  0  0  0  0  0  0  0  0
    4.5000    0.0000    0.0000 C   0  0  0  0  0  0  0  0  0  0  0  0
    3.0000    0.0000    0.0000 C   0  0  0  0  0  0  0  0  0  0  0  0
    1.5000    0.0000    0.0000 C   0  0  0  0  0  0  0  0  0  0  0  0
    0.7500   -1.2990    0.0000 C   0  0  0  0  0  0  0  0  0  0  0  0
   -0.7500   -1.2990    0.0000 C   0  0  0  0  0  0  0  0  0  0  0  0
   -1.5000    0.0000    0.0000 C   0  0  0  0  0  0  0  0  0  0  0  0
   -0.7500    1.2990    0.0000 N   0  0  0  0  0  0  0  0  0  0  0  0
    0.7500    1.2990    0.0000 N   0  0  0  0  0  0  0  0  0  0  0  0
  1  2  1  0
  2  3  3  0
  3  4  1  0
  4  5  1  0
  5  6  2  0
  6  7  1  0
  7  8  1  0
  8  9  2  0
  9  4  1  0
M  END
>  <Title>  (38) 
idAABLgen14

$$$$

     RDKit          2D

  8  8  0  0  0  0  0  0  0  0999 V2000
    4.5000    0.0000    0.0000 N   0  0  0  0  0  0  0  0  0  0  0  0
    3.0000    0.0000    0.0000 C   0  0  0  0  0  0  0  0  0  0  0  0
    1.5000    0.0000    0.0000 C   0  0  0  0  0  0  0  0  0  0  0  0
    0.7500   -1.2990    0.0000 C   0  0  0  0  0  0  0  0  0  0  0  0
   -0.7500   -1.2990    0.0000 C   0  0  0  0  0  0  0  0  0  0  0  0
   -1.5000    0.0000    0.0000 C   0  0  0  0  0  0  0  0  0  0  0  0
   -0.7500    1.2990    0.0000 C   0  0  0  0  0  0  0  0  0  0  0  0
    0.7500    1.2990    0.0000 C   0  0  0  0  0  0  0  0  0  0  0  0
  1  2  3  0
  2  3  1  0
  3  4  1  0
  4  5  2  0
  5  6  1  0
  6  7  2  0
  7  8  1  0
  8  3  1  0
M  END
>  <Title>  (39) 
idAABMgen14

$$$$

     RDKit          2D

  3  2  0  0  0  0  0  0  0  0999 V2000
    0.0000    0.0000    0.0000 C   0  0  0  0  0  0  0  0  0  0  0  0
    1.2990    0.7500    0.0000 C   0  0  0  0  0  0  0  0  0  0  0  0
    2.5981   -0.0000    0.0000 C   0  0  0  0  0  0  0  0  0  0  0  0
  1  2  1  0
  2  3  1  0
M  END
>  <Title>  (40) 
idAABNgen14

$$$$

     RDKit          2D

 17 18  0  0  0  0  0  0  0  0999 V2000
   -6.0963   -6.4548    0.0000 C   0  0  0  0  0  0  0  0  0  0  0  0
   -4.9472   -5.4906    0.0000 C   0  0  0  0  0  0  0  0  0  0  0  0
   -3.7981   -4.5264    0.0000 C   0  0  0  0  0  0  0  0  0  0  0  0
   -2.6491   -3.5623    0.0000 C   0  0  0  0  0  0  0  0  0  0  0  0
   -1.5000   -2.5981    0.0000 C   0  0  0  0  0  0  0  0  0  0  0  0
   -2.6491   -1.6339    0.0000 C   0  0  0  0  0  0  0  0  0  0  0  0
   -0.7500   -3.8971    0.0000 C   0  0  0  0  0  0  0  0  0  0  0  0
   -1.5000   -5.1962    0.0000 O   0  0  0  0  0  0  0  0  0  0  0  0
    0.7500   -3.8971    0.0000 C   0  0  0  0  0  0  0  0  0  0  0  0
    1.5000   -2.5981    0.0000 C   0  0  0  0  0  0  0  0  0  0  0  0
    0.7500   -1.2990    0.0000 C   0  0  0  0  0  0  0  0  0  0  0  0
    1.5000    0.0000    0.0000 N   0  0  0  0  0  0  0  0  0  0  0  0
    0.7500    1.2990    0.0000 C   0  0  0  0  0  0  0  0  0  0  0  0
   -0.7500    1.2990    0.0000 C   0  0  0  0  0  0  0  0  0  0  0  0
   -1.5000    0.0000    0.0000 C   0  0  0  0  0  0  0  0  0  0  0  0
   -3.0000    0.0000    0.0000 O   0  0  0  0  0  0  0  0  0  0  0  0
   -0.7500   -1.2990    0.0000 C   0  0  0  0  0  0  0  0  0  0  0  0
  1  2  3  0
  2  3  1  0
  3  4  3  0
  4  5  1  0
  5  6  1  0
  5  7  1  0
  7  8  2  0
  7  9  1  0
  9 10  1  0
 10 11  1  0
 11 12  2  0
 12 13  1  0
 13 14  1  0
 14 15  1  0
 15 16  1  0
 15 17  2  0
 17  5  1  0
 17 11  1  0
M  END
>  <Title>  (41) 
idAABOgen14

$$$$

     RDKit          2D

  3  2  0  0  0  0  0  0  0  0999 V2000
    0.0000    0.0000    0.0000 C   0  0  0  0  0  0  0  0  0  0  0  0
    1.2990    0.7500    0.0000 C   0  0  0  0  0  0  0  0  0  0  0  0
    2.5981   -0.0000    0.0000 C   0  0  0  0  0  0  0  0  0  0  0  0
  1  2  1  0
  2  3  1  0
M  END
>  <Title>  (42) 
idAABPgen14

$$$$

     RDKit          2D

  4  3  0  0  0  0  0  0  0  0999 V2000
    0.0000    0.0000    0.0000 C   0  0  0  0  0  0  0  0  0  0  0  0
    1.2990    0.7500    0.0000 C   0  0  0  0  0  0  0  0  0  0  0  0
    2.5981   -0.0000    0.0000 C   0  0  0  0  0  0  0  0  0  0  0  0
    1.2990    2.2500    0.0000 C   0  0  0  0  0  0  0  0  0  0  0  0
  1  2  1  0
  2  3  1  0
  2  4  1  0
M  END
>  <Title>  (43) 
idAABQgen14

$$$$

     RDKit          2D

  3  2  0  0  0  0  0  0  0  0999 V2000
    0.0000    0.0000    0.0000 C   0  0  0  0  0  0  0  0  0  0  0  0
    1.2990    0.7500    0.0000 C   0  0  0  0  0  0  0  0  0  0  0  0
    2.5981   -0.0000    0.0000 C   0  0  0  0  0  0  0  0  0  0  0  0
  1  2  1  0
  2  3  1  0
M  END
>  <Title>  (44) 
idAABRgen14

$$$$

     RDKit          2D

 11 11  0  0  0  0  0  0  0  0999 V2000
    5.2500    1.2990    0.0000 C   0  0  0  0  0  0  0  0  0  0  0  0
    3.7500    1.2990    0.0000 N   0  0  0  0  0  0  0  0  0  0  0  0
    3.0000    0.0000    0.0000 C   0  0  0  0  0  0  0  0  0  0  0  0
    3.7500   -1.2990    0.0000 C   0  0  0  0  0  0  0  0  0  0  0  0
    1.5000    0.0000    0.0000 C   0  0  0  0  0  0  0  0  0  0  0  0
    0.7500   -1.2990    0.0000 C   0  0  0  0  0  0  0  0  0  0  0  0
   -0.7500   -1.2990    0.0000 C   0  0  0  0  0  0  0  0  0  0  0  0
   -1.5000    0.0000    0.0000 C   0  0  0  0  0  0  0  0  0  0  0  0
   -0.7500    1.2990    0.0000 C   0  0  0  0  0  0  0  0  0  0  0  0
   -1.5000    2.5981    0.0000 O   0  0  0  0  0  0  0  0  0  0  0  0
    0.7500    1.2990    0.0000 C   0  0  0  0  0  0  0  0  0  0  0  0
  1  2  1  0
  2  3  1  0
  3  4  1  0
  3  5  1  0
  5  6  2  0
  6  7  1  0
  7  8  2  0
  8  9  1  0
  9 10  1  0
  9 11  2  0
 11  5  1  0
M  END
>  <Title>  (45) 
idAABSgen14

$$$$

     RDKit          2D

 12 12  0  0  0  0  0  0  0  0999 V2000
    7.2760   -2.5981    0.0000 C   0  0  0  0  0  0  0  0  0  0  0  0
    5.7760   -2.5981    0.0000 C   0  0  0  0  0  0  0  0  0  0  0  0
    5.0260   -3.8971    0.0000 C   0  0  0  0  0  0  0  0  0  0  0  0
    5.0260   -1.2990    0.0000 N   0  0  0  0  0  0  0  0  0  0  0  0
    3.5260   -1.2990    0.0000 C   0  0  0  0  0  0  0  0  0  0  0  0
    2.7760    0.0000    0.0000 C   0  0  0  0  0  0  0  0  0  0  0  0
    3.5260    1.2990    0.0000 O   0  0  0  0  0  0  0  0  0  0  0  0
    1.2760    0.0000    0.0000 C   0  0  0  0  0  0  0  0  0  0  0  0
    0.3943    1.2135    0.0000 C   0  0  0  0  0  0  0  0  0  0  0  0
   -1.0323    0.7500    0.0000 C   0  0  0  0  0  0  0  0  0  0  0  0
   -1.0323   -0.7500    0.0000 C   0  0  0  0  0  0  0  0  0  0  0  0
    0.3943   -1.2135    0.0000 C   0  0  0  0  0  0  0  0  0  0  0  0
  1  2  1  0
  2  3  1  0
  2  4  1  0
  4  5  1  0
  5  6  1  0
  6  7  2  0
  6  8  1  0
  8  9  2  0
  9 10  1  0
 10 11  2  0
 11 12  1  0
 12  8  1  0
M  END
>  <Title>  (46) 
idAABTgen14

$$$$

     RDKit          2D

 14 14  0  0  0  0  0  0  0  0999 V2000
    8.2500   -3.8971    0.0000 C   0  0  0  0  0  0  0  0  0  0  0  0
    7.5000   -2.5981    0.0000 C   0  0  0  0  0  0  0  0  0  0  0  0
    8.2500   -1.2990    0.0000 C   0  0  0  0  0  0  0  0  0  0  0  0
    6.0000   -2.5981    0.0000 N   0  0  0  0  0  0  0  0  0  0  0  0
    5.2500   -1.2990    0.0000 C   0  0  0  0  0  0  0  0  0  0  0  0
    3.7500   -1.2990    0.0000 C   0  0  0  0  0  0  0  0  0  0  0  0
    3.0000   -2.5981    0.0000 O   0  0  0  0  0  0  0  0  0  0  0  0
    3.0000    0.0000    0.0000 C   0  0  0  0  0  0  0  0  0  0  0  0
    1.5000    0.0000    0.0000 C   0  0  0  0  0  0  0  0  0  0  0  0
    0.7500   -1.2990    0.0000 C   0  0  0  0  0  0  0  0  0  0  0  0
   -0.7500   -1.2990    0.0000 C   0  0  0  0  0  0  0  0  0  0  0  0
   -1.5000    0.0000    0.0000 C   0  0  0  0  0  0  0  0  0  0  0  0
   -0.7500    1.2990    0.0000 N   0  0  0  0  0  0  0  0  0  0  0  0
    0.7500    1.2990    0.0000 C   0  0  0  0  0  0  0  0  0  0  0  0
  1  2  1  0
  2  3  1  0
  2  4  2  3
  4  5  1  0
  5  6  1  0
  6  7  2  0
  6  8  1  0
  8  9  1  0
  9 10  2  0
 10 11  1  0
 11 12  2  0
 12 13  1  0
 13 14  2  0
 14  9  1  0
M  END
>  <Title>  (47) 
idAABUgen14

$$$$

     RDKit          2D

  9  9  0  0  0  0  0  0  0  0999 V2000
    6.0000    0.0000    0.0000 C   0  0  0  0  0  0  0  0  0  0  0  0
    4.5000    0.0000    0.0000 C   0  0  0  0  0  0  0  0  0  0  0  0
    3.0000    0.0000    0.0000 C   0  0  0  0  0  0  0  0  0  0  0  0
    1.5000    0.0000    0.0000 C   0  0  0  0  0  0  0  0  0  0  0  0
    0.7500   -1.2990    0.0000 C   0  0  0  0  0  0  0  0  0  0  0  0
   -0.7500   -1.2990    0.0000 C   0  0  0  0  0  0  0  0  0  0  0  0
   -1.5000    0.0000    0.0000 C   0  0  0  0  0  0  0  0  0  0  0  0
   -0.7500    1.2990    0.0000 N   0  0  0  0  0  0  0  0  0  0  0  0
    0.7500    1.2990    0.0000 C   0  0  0  0  0  0  0  0  0  0  0  0
  1  2  1  0
  2  3  3  0
  3  4  1  0
  4  5  2  0
  5  6  1  0
  6  7  2  0
  7  8  1  0
  8  9  2  0
  9  4  1  0
M  END
>  <Title>  (48) 
idAABVgen14

$$$$

     RDKit          2D

  8  8  0  0  0  0  0  0  0  0999 V2000
    3.5260   -1.2990    0.0000 C   0  0  0  0  0  0  0  0  0  0  0  0
    2.7760    0.0000    0.0000 C   0  0  0  0  0  0  0  0  0  0  0  0
    3.5260    1.2990    0.0000 O   0  0  0  0  0  0  0  0  0  0  0  0
    1.2760    0.0000    0.0000 C   0  0  0  0  0  0  0  0  0  0  0  0
    0.3943    1.2135    0.0000 C   0  0  0  0  0  0  0  0  0  0  0  0
   -1.0323    0.7500    0.0000 C   0  0  0  0  0  0  0  0  0  0  0  0
   -1.0323   -0.7500    0.0000 C   0  0  0  0  0  0  0  0  0  0  0  0
    0.3943   -1.2135    0.0000 C   0  0  0  0  0  0  0  0  0  0  0  0
  1  2  1  0
  2  3  2  0
  2  4  1  0
  4  5  2  0
  5  6  1  0
  6  7  1  0
  7  8  1  0
  8  4  1  0
M  END
>  <Title>  (49) 
idAABWgen14

$$$$

     RDKit          2D

 28 31  0  0  0  0  0  0  0  0999 V2000
   -7.5989  -10.7027    0.0000 C   0  0  0  0  0  0  0  0  0  0  0  0
   -6.1317  -10.3909    0.0000 C   0  0  0  0  0  0  0  0  0  0  0  0
   -5.1280  -11.5056    0.0000 O   0  0  0  0  0  0  0  0  0  0  0  0
   -5.6682   -8.9643    0.0000 C   0  0  0  0  0  0  0  0  0  0  0  0
   -4.2416   -8.5008    0.0000 C   0  0  0  0  0  0  0  0  0  0  0  0
   -4.2416   -7.0008    0.0000 C   0  0  0  0  0  0  0  0  0  0  0  0
   -5.6682   -6.5372    0.0000 N   0  0  0  0  0  0  0  0  0  0  0  0
   -6.1317   -5.1106    0.0000 N   0  0  0  0  0  0  0  0  0  0  0  0
   -7.5583   -4.6471    0.0000 N   0  0  0  0  0  0  0  0  0  0  0  0
   -7.5583   -3.1471    0.0000 N   0  0  0  0  0  0  0  0  0  0  0  0
   -6.1317   -2.6836    0.0000 N   0  0  0  0  0  0  0  0  0  0  0  0
   -5.2500   -3.8971    0.0000 C   0  0  0  0  0  0  0  0  0  0  0  0
   -3.7500   -3.8971    0.0000 N   0  0  0  0  0  0  0  0  0  0  0  0
   -3.0000   -2.5981    0.0000 C   0  0  0  0  0  0  0  0  0  0  0  0
   -3.7500   -1.2990    0.0000 O   0  0  0  0  0  0  0  0  0  0  0  0
   -1.5000   -2.5981    0.0000 C   0  0  0  0  0  0  0  0  0  0  0  0
   -0.7500   -3.8971    0.0000 C   0  0  0  0  0  0  0  0  0  0  0  0
    0.7500   -3.8971    0.0000 C   0  0  0  0  0  0  0  0  0  0  0  0
    1.5000   -2.5981    0.0000 C   0  0  0  0  0  0  0  0  0  0  0  0
    3.0000   -2.5981    0.0000 C   0  0  0  0  0  0  0  0  0  0  0  0
    0.7500   -1.2990    0.0000 C   0  0  0  0  0  0  0  0  0  0  0  0
    1.5000    0.0000    0.0000 C   0  0  0  0  0  0  0  0  0  0  0  0
    0.7500    1.2990    0.0000 C   0  0  0  0  0  0  0  0  0  0  0  0
   -0.7500    1.2990    0.0000 C   0  0  0  0  0  0  0  0  0  0  0  0
   -1.5000    0.0000    0.0000 C   0  0  0  0  0  0  0  0  0  0  0  0
   -0.7500   -1.2990    0.0000 C   0  0  0  0  0  0  0  0  0  0  0  0
   -6.5498   -7.7508    0.0000 C   0  0  0  0  0  0  0  0  0  0  0  0
   -8.0498   -7.7508    0.0000 O   0  0  0  0  0  0  0  0  0  0  0  0
  1  2  1  0
  2  3  2  0
  2  4  1  0
  4  5  1  0
  5  6  1  0
  6  7  1  0
  7  8  1  0
  8  9  1  0
  9 10  2  0
 10 11  1  0
 11 12  2  0
 12 13  1  0
 13 14  1  0
 14 15  2  0
 14 16  1  0
 16 17  2  0
 17 18  1  0
 18 19  2  0
 19 20  1  0
 19 21  1  0
 21 22  2  0
 22 23  1  0
 23 24  2  0
 24 25  1  0
 25 26  2  0
  7 27  1  0
 27 28  2  0
 27  4  1  0
 12  8  1  0
 26 16  1  0
 26 21  1  0
M  END
>  <Title>  (50) 
idAABXgen14

$$$$

     RDKit          2D

 30 33  0  0  0  0  0  0  0  0999 V2000
   -4.5823   -1.2116    0.0000 N   0  0  0  0  0  0  0  0  0  0  0  0
   -3.1965   -1.7857    0.0000 C   0  0  0  0  0  0  0  0  0  0  0  0
   -1.8107   -2.3597    0.0000 C   0  0  0  0  0  0  0  0  0  0  0  0
   -1.8107   -3.8597    0.0000 C   0  0  0  0  0  0  0  0  0  0  0  0
   -0.7500   -4.9204    0.0000 C   0  0  0  0  0  0  0  0  0  0  0  0
    0.7500   -4.9204    0.0000 C   0  0  0  0  0  0  0  0  0  0  0  0
    1.8107   -3.8597    0.0000 C   0  0  0  0  0  0  0  0  0  0  0  0
    1.8107   -2.3597    0.0000 C   0  0  0  0  0  0  0  0  0  0  0  0
    3.1965   -1.7857    0.0000 O   0  0  0  0  0  0  0  0  0  0  0  0
    4.3865   -2.6988    0.0000 C   0  0  0  0  0  0  0  0  0  0  0  0
    5.8247   -2.2728    0.0000 C   0  0  0  0  0  0  0  0  0  0  0  0
    6.6743   -3.5090    0.0000 C   0  0  0  0  0  0  0  0  0  0  0  0
    5.7612   -4.6990    0.0000 C   0  0  0  0  0  0  0  0  0  0  0  0
    6.1872   -6.1372    0.0000 C   0  0  0  0  0  0  0  0  0  0  0  0
    7.6458   -6.4874    0.0000 O   0  0  0  0  0  0  0  0  0  0  0  0
    5.1547   -7.2253    0.0000 N   0  0  0  0  0  0  0  0  0  0  0  0
    5.5807   -8.6635    0.0000 C   0  0  0  0  0  0  0  0  0  0  0  0
    4.5482   -9.7516    0.0000 N   0  0  0  0  0  0  0  0  0  0  0  0
    4.9742  -11.1898    0.0000 N   0  0  0  0  0  0  0  0  0  0  0  0
    6.4328  -11.5400    0.0000 N   0  0  0  0  0  0  0  0  0  0  0  0
    7.4653  -10.4519    0.0000 N   0  0  0  0  0  0  0  0  0  0  0  0
    7.0393   -9.0137    0.0000 N   0  0  0  0  0  0  0  0  0  0  0  0
    4.3472   -4.1983    0.0000 C   0  0  0  0  0  0  0  0  0  0  0  0
    3.1111   -5.0479    0.0000 O   0  0  0  0  0  0  0  0  0  0  0  0
    0.7500   -1.2990    0.0000 C   0  0  0  0  0  0  0  0  0  0  0  0
    1.5000    0.0000    0.0000 C   0  0  0  0  0  0  0  0  0  0  0  0
    0.7500    1.2990    0.0000 C   0  0  0  0  0  0  0  0  0  0  0  0
   -0.7500    1.2990    0.0000 C   0  0  0  0  0  0  0  0  0  0  0  0
   -1.5000    0.0000    0.0000 C   0  0  0  0  0  0  0  0  0  0  0  0
   -0.7500   -1.2990    0.0000 C   0  0  0  0  0  0  0  0  0  0  0  0
  1  2  3  0
  2  3  1  0
  3  4  1  0
  4  5  2  0
  5  6  1  0
  6  7  1  0
  7  8  1  0
  8  9  1  0
  9 10  1  0
 10 11  2  0
 11 12  1  0
 12 13  2  0
 13 14  1  0
 14 15  2  0
 14 16  1  0
 16 17  1  0
 17 18  2  0
 18 19  1  0
 19 20  2  0
 20 21  1  0
 21 22  2  0
 13 23  1  0
 23 24  2  0
  8 25  1  0
 25 26  2  0
 26 27  1  0
 27 28  2  0
 28 29  1  0
 29 30  2  0
 30  3  1  0
 23 10  1  0
 30 25  1  0
 22 17  1  0
M  END
>  <Title>  (51) 
idAAAAgen14

$$$$

     RDKit          2D

 17 17  0  0  0  0  0  0  0  0999 V2000
    7.5000   -7.7942    0.0000 C   0  0  0  0  0  0  0  0  0  0  0  0
    8.2500   -6.4952    0.0000 C   0  0  0  0  0  0  0  0  0  0  0  0
    7.5000   -5.1962    0.0000 C   0  0  0  0  0  0  0  0  0  0  0  0
    8.2500   -3.8971    0.0000 C   0  0  0  0  0  0  0  0  0  0  0  0
    9.7500   -3.8971    0.0000 C   0  0  0  0  0  0  0  0  0  0  0  0
    7.5000   -2.5981    0.0000 N   0  0  0  0  0  0  0  0  0  0  0  0
    6.0000   -2.5981    0.0000 C   0  0  0  0  0  0  0  0  0  0  0  0
    5.2500   -3.8971    0.0000 O   0  0  0  0  0  0  0  0  0  0  0  0
    5.2500   -1.2990    0.0000 N   0  0  0  0  0  0  0  0  0  0  0  0
    3.7500   -1.2990    0.0000 C   0  0  0  0  0  0  0  0  0  0  0  0
    3.0000    0.0000    0.0000 C   0  0  0  0  0  0  0  0  0  0  0  0
    1.5000    0.0000    0.0000 C   0  0  0  0  0  0  0  0  0  0  0  0
    0.7500   -1.2990    0.0000 C   0  0  0  0  0  0  0  0  0  0  0  0
   -0.7500   -1.2990    0.0000 C   0  0  0  0  0  0  0  0  0  0  0  0
   -1.5000    0.0000    0.0000 C   0  0  0  0  0  0  0  0  0  0  0  0
   -0.7500    1.2990    0.0000 N   0  0  0  0  0  0  0  0  0  0  0  0
    0.7500    1.2990    0.0000 C   0  0  0  0  0  0  0  0  0  0  0  0
  1  2  1  0
  2  3  1  0
  3  4  1  0
  4  5  1  0
  4  6  1  0
  6  7  1  0
  7  8  2  0
  7  9  1  0
  9 10  1  0
 10 11  1  0
 11 12  1  0
 12 13  2  0
 13 14  1  0
 14 15  2  0
 15 16  1  0
 16 17  2  0
 17 12  1  0
M  END
>  <Title>  (52) 
idAAABgen14

$$$$

     RDKit          2D

 19 20  0  0  0  0  0  0  0  0999 V2000
    3.0000    0.0000    0.0000 C   0  0  0  0  0  0  0  0  0  0  0  0
    1.5000    0.0000    0.0000 C   0  0  0  0  0  0  0  0  0  0  0  0
    0.7500   -1.2990    0.0000 C   0  0  0  0  0  0  0  0  0  0  0  0
   -0.7500   -1.2990    0.0000 C   0  0  0  0  0  0  0  0  0  0  0  0
   -1.5000    0.0000    0.0000 C   0  0  0  0  0  0  0  0  0  0  0  0
   -3.0000    0.0000    0.0000 N   0  0  0  0  0  0  0  0  0  0  0  0
   -3.7500    1.2990    0.0000 C   0  0  0  0  0  0  0  0  0  0  0  0
   -3.0000    2.5981    0.0000 O   0  0  0  0  0  0  0  0  0  0  0  0
   -5.2500    1.2990    0.0000 C   0  0  0  0  0  0  0  0  0  0  0  0
   -6.0000    2.5981    0.0000 C   0  0  0  0  0  0  0  0  0  0  0  0
   -7.5000    2.5981    0.0000 C   0  0  0  0  0  0  0  0  0  0  0  0
   -8.2500    3.8971    0.0000 C   0  0  0  0  0  0  0  0  0  0  0  0
   -9.7500    3.8971    0.0000 C   0  0  0  0  0  0  0  0  0  0  0  0
  -10.5000    2.5981    0.0000 C   0  0  0  0  0  0  0  0  0  0  0  0
  -12.0000    2.5981    0.0000 O   0  0  0  0  0  0  0  0  0  0  0  0
   -9.7500    1.2990    0.0000 C   0  0  0  0  0  0  0  0  0  0  0  0
   -8.2500    1.2990    0.0000 C   0  0  0  0  0  0  0  0  0  0  0  0
   -0.7500    1.2990    0.0000 C   0  0  0  0  0  0  0  0  0  0  0  0
    0.7500    1.2990    0.0000 C   0  0  0  0  0  0  0  0  0  0  0  0
  1  2  1  0
  2  3  2  0
  3  4  1  0
  4  5  1  0
  5  6  1  0
  6  7  1  0
  7  8  2  0
  7  9  1  0
  9 10  1  0
 10 11  1  0
 11 12  2  0
 12 13  1  0
 13 14  2  0
 14 15  1  0
 14 16  1  0
 16 17  2  0
  5 18  1  0
 18 19  2  0
 19  2  1  0
 17 11  1  0
M  END
>  <Title>  (53) 
idAAACgen14

$$$$

     RDKit          2D

  7  6  0  0  0  0  0  0  0  0999 V2000
    0.0000    0.0000    0.0000 C   0  0  0  0  0  0  0  0  0  0  0  0
    1.2990    0.7500    0.0000 C   0  0  0  0  0  0  0  0  0  0  0  0
    2.5981   -0.0000    0.0000 C   0  0  0  0  0  0  0  0  0  0  0  0
    3.8971    0.7500    0.0000 N   0  0  0  0  0  0  0  0  0  0  0  0
    5.1962   -0.0000    0.0000 C   0  0  0  0  0  0  0  0  0  0  0  0
    6.4952    0.7500    0.0000 C   0  0  0  0  0  0  0  0  0  0  0  0
    7.7942   -0.0000    0.0000 N   0  0  0  0  0  0  0  0  0  0  0  0
  1  2  1  0
  2  3  2  3
  3  4  1  0
  4  5  1  0
  5  6  1  0
  6  7  1  0
M  END
>  <Title>  (54) 
idAAADgen14

$$$$

     RDKit          2D

 41 45  0  0  0  0  0  0  0  0999 V2000
   -9.7500   -6.4952    0.0000 C   0  0  0  0  0  0  0  0  0  0  0  0
   -8.2500   -6.4952    0.0000 C   0  0  0  0  0  0  0  0  0  0  0  0
   -7.5000   -5.1962    0.0000 C   0  0  0  0  0  0  0  0  0  0  0  0
   -6.0000   -5.1962    0.0000 C   0  0  0  0  0  0  0  0  0  0  0  0
   -5.2500   -6.4952    0.0000 O   0  0  0  0  0  0  0  0  0  0  0  0
   -5.2500   -3.8971    0.0000 N   0  0  0  0  0  0  0  0  0  0  0  0
   -3.7500   -3.8971    0.0000 C   0  0  0  0  0  0  0  0  0  0  0  0
   -3.0000   -2.5981    0.0000 C   0  0  0  0  0  0  0  0  0  0  0  0
   -1.5000   -2.5981    0.0000 C   0  0  0  0  0  0  0  0  0  0  0  0
   -0.7500   -3.8971    0.0000 C   0  0  0  0  0  0  0  0  0  0  0  0
    0.7500   -3.8971    0.0000 C   0  0  0  0  0  0  0  0  0  0  0  0
    1.5000   -2.5981    0.0000 C   0  0  0  0  0  0  0  0  0  0  0  0
    3.0000   -2.5981    0.0000 C   0  0  0  0  0  0  0  0  0  0  0  0
    3.7500   -1.2990    0.0000 O   0  0  0  0  0  0  0  0  0  0  0  0
    3.7500   -3.8971    0.0000 N   0  0  0  0  0  0  0  0  0  0  0  0
    5.2500   -3.8971    0.0000 C   0  0  0  0  0  0  0  0  0  0  0  0
    6.1317   -2.6836    0.0000 N   0  0  0  0  0  0  0  0  0  0  0  0
    7.5583   -3.1471    0.0000 N   0  0  0  0  0  0  0  0  0  0  0  0
    7.5583   -4.6471    0.0000 N   0  0  0  0  0  0  0  0  0  0  0  0
    6.1317   -5.1106    0.0000 N   0  0  0  0  0  0  0  0  0  0  0  0
    5.6682   -6.5372    0.0000 N   0  0  0  0  0  0  0  0  0  0  0  0
    6.5498   -7.7508    0.0000 C   0  0  0  0  0  0  0  0  0  0  0  0
    5.6682   -8.9643    0.0000 C   0  0  0  0  0  0  0  0  0  0  0  0
    4.2416   -8.5008    0.0000 N   0  0  0  0  0  0  0  0  0  0  0  0
    3.0280   -9.3824    0.0000 C   0  0  0  0  0  0  0  0  0  0  0  0
    3.1848  -10.8742    0.0000 O   0  0  0  0  0  0  0  0  0  0  0  0
    1.6577   -8.7723    0.0000 N   0  0  0  0  0  0  0  0  0  0  0  0
    0.4442   -9.6540    0.0000 C   0  0  0  0  0  0  0  0  0  0  0  0
   -0.9261   -9.0439    0.0000 N   0  0  0  0  0  0  0  0  0  0  0  0
   -2.1396   -9.9256    0.0000 N   0  0  0  0  0  0  0  0  0  0  0  0
   -1.9829  -11.4174    0.0000 N   0  0  0  0  0  0  0  0  0  0  0  0
   -0.6125  -12.0275    0.0000 N   0  0  0  0  0  0  0  0  0  0  0  0
    0.6010  -11.1458    0.0000 N   0  0  0  0  0  0  0  0  0  0  0  0
    4.2416   -7.0008    0.0000 C   0  0  0  0  0  0  0  0  0  0  0  0
    3.0280   -6.1191    0.0000 O   0  0  0  0  0  0  0  0  0  0  0  0
    0.7500   -1.2990    0.0000 C   0  0  0  0  0  0  0  0  0  0  0  0
    1.5000    0.0000    0.0000 C   0  0  0  0  0  0  0  0  0  0  0  0
    0.7500    1.2990    0.0000 C   0  0  0  0  0  0  0  0  0  0  0  0
   -0.7500    1.2990    0.0000 C   0  0  0  0  0  0  0  0  0  0  0  0
   -1.5000    0.0000    0.0000 C   0  0  0  0  0  0  0  0  0  0  0  0
   -0.7500   -1.2990    0.0000 C   0  0  0  0  0  0  0  0  0  0  0  0
  1  2  1  0
  2  3  1  0
  3  4  1  0
  4  5  2  0
  4  6  1  0
  6  7  1  0
  7  8  1  0
  8  9  1  0
  9 10  2  0
 10 11  1  0
 11 12  2  0
 12 13  1  0
 13 14  2  0
 13 15  1  0
 15 16  1  0
 16 17  2  0
 17 18  1  0
 18 19  2  0
 19 20  1  0
 20 21  1  0
 21 22  1  0
 22 23  1  0
 23 24  1  0
 24 25  1  0
 25 26  2  0
 25 27  1  0
 27 28  1  0
 28 29  2  0
 29 30  1  0
 30 31  2  0
 31 32  1  0
 32 33  2  0
 24 34  1  0
 34 35  2  0
 12 36  1  0
 36 37  2  0
 37 38  1  0
 38 39  2  0
 39 40  1  0
 40 41  2  0
 41  9  1  0
 20 16  1  0
 34 21  1  0
 41 36  1  0
 33 28  1  0
M  END
>  <Title>  (55) 
idAAAEgen14

$$$$

     RDKit          2D

  5  4  0  0  0  0  0  0  0  0999 V2000
    0.0000    0.0000    0.0000 C   0  0  0  0  0  0  0  0  0  0  0  0
    1.2990    0.7500    0.0000 N   0  0  0  0  0  0  0  0  0  0  0  0
    2.5981   -0.0000    0.0000 C   0  0  0  0  0  0  0  0  0  0  0  0
    3.8971    0.7500    0.0000 O   0  0  0  0  0  0  0  0  0  0  0  0
    2.5981   -1.5000    0.0000 F   0  0  0  0  0  0  0  0  0  0  0  0
  1  2  1  0
  2  3  1  0
  3  4  1  0
  3  5  1  0
M  END
>  <Title>  (56) 
idAAAFgen14

$$$$

     RDKit          2D

 34 38  0  0  0  0  0  0  0  0999 V2000
   -3.0000   -2.5981    0.0000 C   0  0  0  0  0  0  0  0  0  0  0  0
   -1.5000   -2.5981    0.0000 C   0  0  0  0  0  0  0  0  0  0  0  0
   -0.7500   -3.8971    0.0000 C   0  0  0  0  0  0  0  0  0  0  0  0
    0.7500   -3.8971    0.0000 N   0  0  0  0  0  0  0  0  0  0  0  0
    1.5000   -2.5981    0.0000 C   0  0  0  0  0  0  0  0  0  0  0  0
    3.0000   -2.5981    0.0000 C   0  0  0  0  0  0  0  0  0  0  0  0
    3.7500   -1.2990    0.0000 O   0  0  0  0  0  0  0  0  0  0  0  0
    3.7500   -3.8971    0.0000 N   0  0  0  0  0  0  0  0  0  0  0  0
    5.2500   -3.8971    0.0000 C   0  0  0  0  0  0  0  0  0  0  0  0
    6.1317   -2.6836    0.0000 N   0  0  0  0  0  0  0  0  0  0  0  0
    7.5583   -3.1471    0.0000 N   0  0  0  0  0  0  0  0  0  0  0  0
    7.5583   -4.6471    0.0000 N   0  0  0  0  0  0  0  0  0  0  0  0
    6.1317   -5.1106    0.0000 N   0  0  0  0  0  0  0  0  0  0  0  0
    5.6682   -6.5372    0.0000 C   0  0  0  0  0  0  0  0  0  0  0  0
    6.5498   -7.7508    0.0000 C   0  0  0  0  0  0  0  0  0  0  0  0
    5.6682   -8.9643    0.0000 C   0  0  0  0  0  0  0  0  0  0  0  0
    4.2416   -8.5008    0.0000 C   0  0  0  0  0  0  0  0  0  0  0  0
    3.0280   -9.3824    0.0000 C   0  0  0  0  0  0  0  0  0  0  0  0
    3.1848  -10.8742    0.0000 O   0  0  0  0  0  0  0  0  0  0  0  0
    1.6577   -8.7723    0.0000 N   0  0  0  0  0  0  0  0  0  0  0  0
    0.4442   -9.6540    0.0000 C   0  0  0  0  0  0  0  0  0  0  0  0
   -0.9261   -9.0439    0.0000 N   0  0  0  0  0  0  0  0  0  0  0  0
   -2.1396   -9.9256    0.0000 N   0  0  0  0  0  0  0  0  0  0  0  0
   -1.9829  -11.4174    0.0000 N   0  0  0  0  0  0  0  0  0  0  0  0
   -0.6125  -12.0275    0.0000 N   0  0  0  0  0  0  0  0  0  0  0  0
    0.6010  -11.1458    0.0000 N   0  0  0  0  0  0  0  0  0  0  0  0
    4.2416   -7.0008    0.0000 C   0  0  0  0  0  0  0  0  0  0  0  0
    3.0280   -6.1191    0.0000 O   0  0  0  0  0  0  0  0  0  0  0  0
    0.7500   -1.2990    0.0000 C   0  0  0  0  0  0  0  0  0  0  0  0
    1.5000    0.0000    0.0000 C   0  0  0  0  0  0  0  0  0  0  0  0
    0.7500    1.2990    0.0000 C   0  0  0  0  0  0  0  0  0  0  0  0
   -0.7500    1.2990    0.0000 C   0  0  0  0  0  0  0  0  0  0  0  0
   -1.5000    0.0000    0.0000 C   0  0  0  0  0  0  0  0  0  0  0  0
   -0.7500   -1.2990    0.0000 C   0  0  0  0  0  0  0  0  0  0  0  0
  1  2  1  0
  2  3  1  0
  3  4  1  0
  4  5  1  0
  5  6  1  0
  6  7  2  0
  6  8  1  0
  8  9  1  0
  9 10  2  0
 10 11  1  0
 11 12  2  0
 12 13  1  0
 13 14  1  0
 14 15  2  0
 15 16  1  0
 16 17  2  0
 17 18  1  0
 18 19  2  0
 18 20  1  0
 20 21  1  0
 21 22  2  0
 22 23  1  0
 23 24  2  0
 24 25  1  0
 25 26  2  0
 17 27  1  0
 27 28  2  0
  5 29  1  0
 29 30  2  0
 30 31  1  0
 31 32  2  0
 32 33  1  0
 33 34  2  0
 34  2  1  0
 13  9  1  0
 27 14  1  0
 34 29  1  0
 26 21  1  0
M  END
>  <Title>  (57) 
idAAAGgen14

$$$$

     RDKit          2D

 10 10  0  0  0  0  0  0  0  0999 V2000
    5.2500   -1.2990    0.0000 C   0  0  0  0  0  0  0  0  0  0  0  0
    3.7500   -1.2990    0.0000 C   0  0  0  0  0  0  0  0  0  0  0  0
    3.0000   -2.5981    0.0000 O   0  0  0  0  0  0  0  0  0  0  0  0
    3.0000    0.0000    0.0000 N   0  0  0  0  0  0  0  0  0  0  0  0
    1.5000    0.0000    0.0000 C   0  0  0  0  0  0  0  0  0  0  0  0
    0.7500   -1.2990    0.0000 C   0  0  0  0  0  0  0  0  0  0  0  0
   -0.7500   -1.2990    0.0000 C   0  0  0  0  0  0  0  0  0  0  0  0
   -1.5000    0.0000    0.0000 C   0  0  0  0  0  0  0  0  0  0  0  0
   -0.7500    1.2990    0.0000 N   0  0  0  0  0  0  0  0  0  0  0  0
    0.7500    1.2990    0.0000 C   0  0  0  0  0  0  0  0  0  0  0  0
  1  2  1  0
  2  3  2  0
  2  4  1  0
  4  5  1  0
  5  6  2  0
  6  7  1  0
  7  8  2  0
  8  9  1  0
  9 10  2  0
 10  5  1  0
M  END
>  <Title>  (58) 
idAAAHgen14

$$$$

     RDKit          2D

  9  8  0  0  0  0  0  0  0  0999 V2000
    0.0000    0.0000    0.0000 C   0  0  0  0  0  0  0  0  0  0  0  0
    1.2990    0.7500    0.0000 C   0  0  0  0  0  0  0  0  0  0  0  0
    2.5981   -0.0000    0.0000 C   0  0  0  0  0  0  0  0  0  0  0  0
    3.8971    0.7500    0.0000 C   0  0  0  0  0  0  0  0  0  0  0  0
    5.1962   -0.0000    0.0000 C   0  0  0  0  0  0  0  0  0  0  0  0
    6.4952    0.7500    0.0000 C   0  0  0  0  0  0  0  0  0  0  0  0
    7.7942   -0.0000    0.0000 C   0  0  0  0  0  0  0  0  0  0  0  0
    6.4952    2.2500    0.0000 N   0  0  0  0  0  0  0  0  0  0  0  0
    7.7942    3.0000    0.0000 C   0  0  0  0  0  0  0  0  0  0  0  0
  1  2  2  0
  2  3  1  0
  3  4  1  0
  4  5  1  0
  5  6  1  0
  6  7  1  0
  6  8  1  0
  8  9  1  0
M  END
>  <Title>  (59) 
idAAAIgen14

$$$$

     RDKit          2D

 38 43  0  0  0  0  0  0  0  0999 V2000
   -1.3240   -6.3062    0.0000 C   0  0  0  0  0  0  0  0  0  0  0  0
   -0.7500   -4.9204    0.0000 C   0  0  0  0  0  0  0  0  0  0  0  0
    0.7500   -4.9204    0.0000 C   0  0  0  0  0  0  0  0  0  0  0  0
    1.8107   -3.8597    0.0000 C   0  0  0  0  0  0  0  0  0  0  0  0
    1.8107   -2.3597    0.0000 C   0  0  0  0  0  0  0  0  0  0  0  0
    3.1965   -1.7857    0.0000 N   0  0  0  0  0  0  0  0  0  0  0  0
    3.5466   -0.3271    0.0000 C   0  0  0  0  0  0  0  0  0  0  0  0
    5.0420   -0.2094    0.0000 C   0  0  0  0  0  0  0  0  0  0  0  0
    5.6160   -1.5952    0.0000 N   0  0  0  0  0  0  0  0  0  0  0  0
    4.4754   -2.5694    0.0000 N   0  0  0  0  0  0  0  0  0  0  0  0
    4.5931   -4.0648    0.0000 N   0  0  0  0  0  0  0  0  0  0  0  0
    3.6190   -5.2054    0.0000 C   0  0  0  0  0  0  0  0  0  0  0  0
    4.7596   -6.1796    0.0000 C   0  0  0  0  0  0  0  0  0  0  0  0
    4.8773   -7.6750    0.0000 C   0  0  0  0  0  0  0  0  0  0  0  0
    6.2311   -8.3207    0.0000 O   0  0  0  0  0  0  0  0  0  0  0  0
    3.6411   -8.5246    0.0000 N   0  0  0  0  0  0  0  0  0  0  0  0
    3.7588  -10.0199    0.0000 C   0  0  0  0  0  0  0  0  0  0  0  0
    2.5226  -10.8695    0.0000 N   0  0  0  0  0  0  0  0  0  0  0  0
    2.6403  -12.3649    0.0000 N   0  0  0  0  0  0  0  0  0  0  0  0
    3.9941  -13.0107    0.0000 N   0  0  0  0  0  0  0  0  0  0  0  0
    5.2303  -12.1611    0.0000 N   0  0  0  0  0  0  0  0  0  0  0  0
    5.1126  -10.6657    0.0000 N   0  0  0  0  0  0  0  0  0  0  0  0
    5.7337   -5.0390    0.0000 C   0  0  0  0  0  0  0  0  0  0  0  0
    7.2291   -4.9213    0.0000 O   0  0  0  0  0  0  0  0  0  0  0  0
    0.7500   -1.2990    0.0000 C   0  0  0  0  0  0  0  0  0  0  0  0
    1.5000    0.0000    0.0000 C   0  0  0  0  0  0  0  0  0  0  0  0
    0.7500    1.2990    0.0000 C   0  0  0  0  0  0  0  0  0  0  0  0
   -0.7500    1.2990    0.0000 C   0  0  0  0  0  0  0  0  0  0  0  0
   -1.5000    0.0000    0.0000 C   0  0  0  0  0  0  0  0  0  0  0  0
   -0.7500   -1.2990    0.0000 C   0  0  0  0  0  0  0  0  0  0  0  0
   -1.8107   -2.3597    0.0000 C   0  0  0  0  0  0  0  0  0  0  0  0
   -3.1097   -1.6097    0.0000 C   0  0  0  0  0  0  0  0  0  0  0  0
   -4.4087   -2.3597    0.0000 C   0  0  0  0  0  0  0  0  0  0  0  0
   -4.4087   -3.8597    0.0000 C   0  0  0  0  0  0  0  0  0  0  0  0
   -5.7078   -4.6097    0.0000 C   0  0  0  0  0  0  0  0  0  0  0  0
   -7.0068   -5.3597    0.0000 N   0  0  0  0  0  0  0  0  0  0  0  0
   -3.1097   -4.6097    0.0000 C   0  0  0  0  0  0  0  0  0  0  0  0
   -1.8107   -3.8597    0.0000 C   0  0  0  0  0  0  0  0  0  0  0  0
  1  2  1  0
  2  3  2  0
  3  4  1  0
  4  5  2  0
  5  6  1  0
  6  7  1  0
  7  8  1  0
  8  9  2  0
  9 10  1  0
 10 11  1  0
 11 12  1  0
 12 13  2  0
 13 14  1  0
 14 15  2  0
 14 16  1  0
 16 17  1  0
 17 18  2  0
 18 19  1  0
 19 20  2  0
 20 21  1  0
 21 22  2  0
 13 23  1  0
 23 24  2  0
  5 25  1  0
 25 26  2  0
 26 27  1  0
 27 28  2  0
 28 29  1  0
 29 30  2  0
 30 31  1  0
 31 32  2  0
 32 33  1  0
 33 34  2  0
 34 35  1  0
 35 36  3  0
 34 37  1  0
 37 38  2  0
 38  2  1  0
 10  6  1  0
 23 11  1  0
 30 25  1  0
 38 31  1  0
 22 17  1  0
M  END
>  <Title>  (60) 
idAAAJgen14

$$$$

     RDKit          2D

 30 34  0  0  0  0  0  0  0  0999 V2000
   -2.6401   -3.1891    0.0000 C   0  0  0  0  0  0  0  0  0  0  0  0
   -1.2135   -2.7256    0.0000 C   0  0  0  0  0  0  0  0  0  0  0  0
   -0.0000   -3.6073    0.0000 N   0  0  0  0  0  0  0  0  0  0  0  0
    1.2135   -2.7256    0.0000 N   0  0  0  0  0  0  0  0  0  0  0  0
    2.6401   -3.1891    0.0000 C   0  0  0  0  0  0  0  0  0  0  0  0
    3.8536   -2.3075    0.0000 N   0  0  0  0  0  0  0  0  0  0  0  0
    5.0672   -3.1891    0.0000 N   0  0  0  0  0  0  0  0  0  0  0  0
    4.6036   -4.6157    0.0000 N   0  0  0  0  0  0  0  0  0  0  0  0
    3.1036   -4.6157    0.0000 N   0  0  0  0  0  0  0  0  0  0  0  0
    2.2220   -5.8293    0.0000 N   0  0  0  0  0  0  0  0  0  0  0  0
    2.6855   -7.2558    0.0000 C   0  0  0  0  0  0  0  0  0  0  0  0
    1.4720   -8.1375    0.0000 C   0  0  0  0  0  0  0  0  0  0  0  0
    0.2584   -7.2558    0.0000 N   0  0  0  0  0  0  0  0  0  0  0  0
   -1.1682   -7.7194    0.0000 C   0  0  0  0  0  0  0  0  0  0  0  0
   -1.4800   -9.1866    0.0000 O   0  0  0  0  0  0  0  0  0  0  0  0
   -2.2829   -6.7157    0.0000 N   0  0  0  0  0  0  0  0  0  0  0  0
   -3.7095   -7.1792    0.0000 C   0  0  0  0  0  0  0  0  0  0  0  0
   -4.8242   -6.1755    0.0000 N   0  0  0  0  0  0  0  0  0  0  0  0
   -6.2508   -6.6390    0.0000 N   0  0  0  0  0  0  0  0  0  0  0  0
   -6.5626   -8.1062    0.0000 N   0  0  0  0  0  0  0  0  0  0  0  0
   -5.4479   -9.1099    0.0000 N   0  0  0  0  0  0  0  0  0  0  0  0
   -4.0213   -8.6464    0.0000 N   0  0  0  0  0  0  0  0  0  0  0  0
    0.7220   -5.8293    0.0000 C   0  0  0  0  0  0  0  0  0  0  0  0
   -0.1597   -4.6157    0.0000 O   0  0  0  0  0  0  0  0  0  0  0  0
    0.7500   -1.2990    0.0000 C   0  0  0  0  0  0  0  0  0  0  0  0
    1.5000    0.0000    0.0000 C   0  0  0  0  0  0  0  0  0  0  0  0
    0.7500    1.2990    0.0000 C   0  0  0  0  0  0  0  0  0  0  0  0
   -0.7500    1.2990    0.0000 C   0  0  0  0  0  0  0  0  0  0  0  0
   -1.5000    0.0000    0.0000 C   0  0  0  0  0  0  0  0  0  0  0  0
   -0.7500   -1.2990    0.0000 C   0  0  0  0  0  0  0  0  0  0  0  0
  1  2  1  0
  2  3  2  0
  3  4  1  0
  4  5  1  0
  5  6  2  0
  6  7  1  0
  7  8  2  0
  8  9  1  0
  9 10  1  0
 10 11  1  0
 11 12  1  0
 12 13  1  0
 13 14  1  0
 14 15  2  0
 14 16  1  0
 16 17  1  0
 17 18  2  0
 18 19  1  0
 19 20  2  0
 20 21  1  0
 21 22  2  0
 13 23  1  0
 23 24  2  0
  4 25  1  0
 25 26  2  0
 26 27  1  0
 27 28  2  0
 28 29  1  0
 29 30  2  0
 30  2  1  0
  9  5  1  0
 23 10  1  0
 30 25  1  0
 22 17  1  0
M  END
>  <Title>  (61) 
idAAAKgen14

$$$$

     RDKit          2D

 17 16  0  0  0  0  0  0  0  0999 V2000
    0.0000    0.0000    0.0000 C   0  0  0  0  0  0  0  0  0  0  0  0
    1.2990    0.7500    0.0000 C   0  0  0  0  0  0  0  0  0  0  0  0
    2.5981   -0.0000    0.0000 C   0  0  0  0  0  0  0  0  0  0  0  0
    1.2990    2.2500    0.0000 C   0  0  0  0  0  0  0  0  0  0  0  0
    1.2990    3.7500    0.0000 C   0  0  0  0  0  0  0  0  0  0  0  0
    1.2990    5.2500    0.0000 C   0  0  0  0  0  0  0  0  0  0  0  0
    1.2990    6.7500    0.0000 C   0  0  0  0  0  0  0  0  0  0  0  0
    1.2990    8.2500    0.0000 C   0  0  0  0  0  0  0  0  0  0  0  0
    1.2990    9.7500    0.0000 C   0  0  0  0  0  0  0  0  0  0  0  0
    1.2990   11.2500    0.0000 C   0  0  0  0  0  0  0  0  0  0  0  0
    1.2990   12.7500    0.0000 C   0  0  0  0  0  0  0  0  0  0  0  0
    1.2990   14.2500    0.0000 C   0  0  0  0  0  0  0  0  0  0  0  0
    1.2990   15.7500    0.0000 C   0  0  0  0  0  0  0  0  0  0  0  0
    1.2990   17.2500    0.0000 C   0  0  0  0  0  0  0  0  0  0  0  0
    1.2990   18.7500    0.0000 C   0  0  0  0  0  0  0  0  0  0  0  0
    1.2990   20.2500    0.0000 C   0  0  0  0  0  0  0  0  0  0  0  0
    1.2990   21.7500    0.0000 N   0  0  0  0  0  0  0  0  0  0  0  0
  1  2  1  0
  2  3  1  0
  2  4  1  0
  4  5  3  0
  5  6  1  0
  6  7  3  0
  7  8  1  0
  8  9  3  0
  9 10  1  0
 10 11  3  0
 11 12  1  0
 12 13  3  0
 13 14  1  0
 14 15  3  0
 15 16  1  0
 16 17  3  0
M  END
>  <Title>  (62) 
idAAALgen14

$$$$

     RDKit          2D

 33 36  0  0  0  0  0  0  0  0999 V2000
   -2.6401   -3.1891    0.0000 C   0  0  0  0  0  0  0  0  0  0  0  0
   -1.2135   -2.7256    0.0000 C   0  0  0  0  0  0  0  0  0  0  0  0
   -0.0000   -3.6073    0.0000 N   0  0  0  0  0  0  0  0  0  0  0  0
    1.2135   -2.7256    0.0000 C   0  0  0  0  0  0  0  0  0  0  0  0
    2.6401   -3.1891    0.0000 C   0  0  0  0  0  0  0  0  0  0  0  0
    2.9520   -4.6564    0.0000 N   0  0  0  0  0  0  0  0  0  0  0  0
    4.3786   -5.1199    0.0000 C   0  0  0  0  0  0  0  0  0  0  0  0
    5.4933   -4.1162    0.0000 O   0  0  0  0  0  0  0  0  0  0  0  0
    4.6904   -6.5871    0.0000 N   0  0  0  0  0  0  0  0  0  0  0  0
    6.1170   -7.0506    0.0000 C   0  0  0  0  0  0  0  0  0  0  0  0
    7.2317   -6.0469    0.0000 O   0  0  0  0  0  0  0  0  0  0  0  0
    6.4289   -8.5179    0.0000 C   0  0  0  0  0  0  0  0  0  0  0  0
    7.8555   -8.9814    0.0000 C   0  0  0  0  0  0  0  0  0  0  0  0
    9.0690   -8.0997    0.0000 C   0  0  0  0  0  0  0  0  0  0  0  0
   10.2825   -8.9814    0.0000 C   0  0  0  0  0  0  0  0  0  0  0  0
    9.8190  -10.4080    0.0000 C   0  0  0  0  0  0  0  0  0  0  0  0
   10.7007  -11.6215    0.0000 C   0  0  0  0  0  0  0  0  0  0  0  0
   12.1925  -11.4647    0.0000 O   0  0  0  0  0  0  0  0  0  0  0  0
   10.0906  -12.9918    0.0000 N   0  0  0  0  0  0  0  0  0  0  0  0
   10.9722  -14.2053    0.0000 C   0  0  0  0  0  0  0  0  0  0  0  0
   10.3621  -15.5757    0.0000 N   0  0  0  0  0  0  0  0  0  0  0  0
   11.2438  -16.7892    0.0000 N   0  0  0  0  0  0  0  0  0  0  0  0
   12.7356  -16.6324    0.0000 N   0  0  0  0  0  0  0  0  0  0  0  0
   13.3457  -15.2621    0.0000 N   0  0  0  0  0  0  0  0  0  0  0  0
   12.4640  -14.0486    0.0000 N   0  0  0  0  0  0  0  0  0  0  0  0
    8.3190  -10.4080    0.0000 C   0  0  0  0  0  0  0  0  0  0  0  0
    7.4373  -11.6215    0.0000 O   0  0  0  0  0  0  0  0  0  0  0  0
    0.7500   -1.2990    0.0000 C   0  0  0  0  0  0  0  0  0  0  0  0
    1.5000    0.0000    0.0000 C   0  0  0  0  0  0  0  0  0  0  0  0
    0.7500    1.2990    0.0000 C   0  0  0  0  0  0  0  0  0  0  0  0
   -0.7500    1.2990    0.0000 C   0  0  0  0  0  0  0  0  0  0  0  0
   -1.5000    0.0000    0.0000 C   0  0  0  0  0  0  0  0  0  0  0  0
   -0.7500   -1.2990    0.0000 C   0  0  0  0  0  0  0  0  0  0  0  0
  1  2  1  0
  2  3  1  0
  3  4  1  0
  4  5  1  0
  5  6  1  0
  6  7  1  0
  7  8  2  0
  7  9  1  0
  9 10  1  0
 10 11  2  0
 10 12  1  0
 12 13  1  0
 13 14  2  0
 14 15  1  0
 15 16  2  0
 16 17  1  0
 17 18  2  0
 17 19  1  0
 19 20  1  0
 20 21  2  0
 21 22  1  0
 22 23  2  0
 23 24  1  0
 24 25  2  0
 16 26  1  0
 26 27  2  0
  4 28  1  0
 28 29  2  0
 29 30  1  0
 30 31  2  0
 31 32  1  0
 32 33  2  0
 33  2  1  0
 26 13  1  0
 33 28  1  0
 25 20  1  0
M  END
>  <Title>  (63) 
idAAAMgen14

$$$$

     RDKit          2D

 93 94  0  0  0  0  0  0  0  0999 V2000
    1.6094    3.7515    0.0000 C   0  0  0  0  0  0  0  0  0  0  0  0
    2.3333    4.0852    0.0000 C   0  0  0  0  0  0  0  0  0  0  0  0
    1.7614    5.4719    0.0000 C   0  0  0  0  0  0  0  0  0  0  0  0
    1.3043    6.9006    0.0000 C   0  0  0  0  0  0  0  0  0  0  0  0
    0.9653    8.3618    0.0000 C   0  0  0  0  0  0  0  0  0  0  0  0
    0.7465    9.8457    0.0000 C   0  0  0  0  0  0  0  0  0  0  0  0
    0.6493   11.3426    0.0000 C   0  0  0  0  0  0  0  0  0  0  0  0
    0.6745   12.8424    0.0000 C   0  0  0  0  0  0  0  0  0  0  0  0
    0.8219   14.3351    0.0000 C   0  0  0  0  0  0  0  0  0  0  0  0
    1.0905   15.8109    0.0000 C   0  0  0  0  0  0  0  0  0  0  0  0
    1.4784   17.2598    0.0000 C   0  0  0  0  0  0  0  0  0  0  0  0
    1.9831   18.6724    0.0000 C   0  0  0  0  0  0  0  0  0  0  0  0
    2.6013   20.0391    0.0000 C   0  0  0  0  0  0  0  0  0  0  0  0
    3.3289   21.3508    0.0000 C   0  0  0  0  0  0  0  0  0  0  0  0
    4.1609   22.5989    0.0000 C   0  0  0  0  0  0  0  0  0  0  0  0
    5.0919   23.7750    0.0000 C   0  0  0  0  0  0  0  0  0  0  0  0
    6.1157   24.8713    0.0000 C   0  0  0  0  0  0  0  0  0  0  0  0
    7.2254   25.8805    0.0000 C   0  0  0  0  0  0  0  0  0  0  0  0
    8.4137   26.7959    0.0000 C   0  0  0  0  0  0  0  0  0  0  0  0
    9.6727   27.6114    0.0000 C   0  0  0  0  0  0  0  0  0  0  0  0
   10.9939   28.3216    0.0000 C   0  0  0  0  0  0  0  0  0  0  0  0
   12.3686   28.9217    0.0000 C   0  0  0  0  0  0  0  0  0  0  0  0
   13.7877   29.4077    0.0000 C   0  0  0  0  0  0  0  0  0  0  0  0
   15.2417   29.7765    0.0000 C   0  0  0  0  0  0  0  0  0  0  0  0
   16.7209   30.0256    0.0000 C   0  0  0  0  0  0  0  0  0  0  0  0
   18.2154   30.1532    0.0000 C   0  0  0  0  0  0  0  0  0  0  0  0
   19.7154   30.1586    0.0000 C   0  0  0  0  0  0  0  0  0  0  0  0
   21.2108   30.0417    0.0000 C   0  0  0  0  0  0  0  0  0  0  0  0
   22.6918   29.8033    0.0000 C   0  0  0  0  0  0  0  0  0  0  0  0
   24.1484   29.4450    0.0000 C   0  0  0  0  0  0  0  0  0  0  0  0
   25.5709   28.9692    0.0000 C   0  0  0  0  0  0  0  0  0  0  0  0
   26.9499   28.3790    0.0000 C   0  0  0  0  0  0  0  0  0  0  0  0
   28.2762   27.6784    0.0000 C   0  0  0  0  0  0  0  0  0  0  0  0
   29.5410   26.8720    0.0000 C   0  0  0  0  0  0  0  0  0  0  0  0
   30.7359   25.9651    0.0000 C   0  0  0  0  0  0  0  0  0  0  0  0
   31.8528   24.9639    0.0000 C   0  0  0  0  0  0  0  0  0  0  0  0
   32.8845   23.8750    0.0000 C   0  0  0  0  0  0  0  0  0  0  0  0
   33.8239   22.7057    0.0000 C   0  0  0  0  0  0  0  0  0  0  0  0
   34.6649   21.4636    0.0000 C   0  0  0  0  0  0  0  0  0  0  0  0
   35.4019   20.1571    0.0000 C   0  0  0  0  0  0  0  0  0  0  0  0
   36.0299   18.7949    0.0000 C   0  0  0  0  0  0  0  0  0  0  0  0
   36.5448   17.3861    0.0000 C   0  0  0  0  0  0  0  0  0  0  0  0
   36.9432   15.9399    0.0000 C   0  0  0  0  0  0  0  0  0  0  0  0
   37.2224   14.4662    0.0000 C   0  0  0  0  0  0  0  0  0  0  0  0
   37.3805   12.9745    0.0000 C   0  0  0  0  0  0  0  0  0  0  0  0
   37.4165   11.4749    0.0000 C   0  0  0  0  0  0  0  0  0  0  0  0
   37.3301    9.9774    0.0000 C   0  0  0  0  0  0  0  0  0  0  0  0
   37.1220    8.4919    0.0000 C   0  0  0  0  0  0  0  0  0  0  0  0
   36.7935    7.0284    0.0000 C   0  0  0  0  0  0  0  0  0  0  0  0
   36.3467    5.5964    0.0000 C   0  0  0  0  0  0  0  0  0  0  0  0
   35.7848    4.2057    0.0000 C   0  0  0  0  0  0  0  0  0  0  0  0
   35.1114    2.8653    0.0000 C   0  0  0  0  0  0  0  0  0  0  0  0
   34.3309    1.5843    0.0000 C   0  0  0  0  0  0  0  0  0  0  0  0
   33.4487    0.3712    0.0000 C   0  0  0  0  0  0  0  0  0  0  0  0
   32.4704   -0.7659    0.0000 C   0  0  0  0  0  0  0  0  0  0  0  0
   31.4028   -1.8195    0.0000 C   0  0  0  0  0  0  0  0  0  0  0  0
   30.2528   -2.7827    0.0000 C   0  0  0  0  0  0  0  0  0  0  0  0
   29.0282   -3.6488    0.0000 C   0  0  0  0  0  0  0  0  0  0  0  0
   27.7370   -4.4123    0.0000 C   0  0  0  0  0  0  0  0  0  0  0  0
   26.3879   -5.0680    0.0000 C   0  0  0  0  0  0  0  0  0  0  0  0
   24.9899   -5.6115    0.0000 C   0  0  0  0  0  0  0  0  0  0  0  0
   23.5522   -6.0393    0.0000 C   0  0  0  0  0  0  0  0  0  0  0  0
   22.0844   -6.3485    0.0000 C   0  0  0  0  0  0  0  0  0  0  0  0
   20.5963   -6.5370    0.0000 C   0  0  0  0  0  0  0  0  0  0  0  0
   19.0977   -6.6035    0.0000 C   0  0  0  0  0  0  0  0  0  0  0  0
   17.5988   -6.5478    0.0000 C   0  0  0  0  0  0  0  0  0  0  0  0
   16.1094   -6.3700    0.0000 C   0  0  0  0  0  0  0  0  0  0  0  0
   14.6394   -6.0714    0.0000 C   0  0  0  0  0  0  0  0  0  0  0  0
   13.1986   -5.6540    0.0000 C   0  0  0  0  0  0  0  0  0  0  0  0
   11.7967   -5.1205    0.0000 C   0  0  0  0  0  0  0  0  0  0  0  0
   10.4429   -4.4746    0.0000 C   0  0  0  0  0  0  0  0  0  0  0  0
    9.1463   -3.7204    0.0000 C   0  0  0  0  0  0  0  0  0  0  0  0
    7.9154   -2.8631    0.0000 C   0  0  0  0  0  0  0  0  0  0  0  0
    6.7586   -1.9083    0.0000 C   0  0  0  0  0  0  0  0  0  0  0  0
    5.6834   -0.8623    0.0000 C   0  0  0  0  0  0  0  0  0  0  0  0
    4.6970    0.2677    0.0000 C   0  0  0  0  0  0  0  0  0  0  0  0
    3.8060    1.4745    0.0000 C   0  0  0  0  0  0  0  0  0  0  0  0
    3.3816   -0.0000    0.0000 C   0  0  0  0  0  0  0  0  0  0  0  0
    3.1533   -1.2216    0.0000 C   0  0  0  0  0  0  0  0  0  0  0  0
    2.4991   -2.2782    0.0000 C   0  0  0  0  0  0  0  0  0  0  0  0
    1.5073   -3.0271    0.0000 C   0  0  0  0  0  0  0  0  0  0  0  0
    0.3120   -3.3672    0.0000 C   0  0  0  0  0  0  0  0  0  0  0  0
   -0.9254   -3.2526    0.0000 C   0  0  0  0  0  0  0  0  0  0  0  0
   -2.0379   -2.6986    0.0000 C   0  0  0  0  0  0  0  0  0  0  0  0
   -2.8751   -1.7802    0.0000 C   0  0  0  0  0  0  0  0  0  0  0  0
   -3.3241   -0.6214    0.0000 C   0  0  0  0  0  0  0  0  0  0  0  0
   -3.3241    0.6214    0.0000 C   0  0  0  0  0  0  0  0  0  0  0  0
   -2.8751    1.7802    0.0000 C   0  0  0  0  0  0  0  0  0  0  0  0
   -2.0379    2.6986    0.0000 C   0  0  0  0  0  0  0  0  0  0  0  0
   -0.9254    3.2526    0.0000 C   0  0  0  0  0  0  0  0  0  0  0  0
    0.3120    3.3672    0.0000 C   0  0  0  0  0  0  0  0  0  0  0  0
    1.5073    3.0271    0.0000 C   0  0  0  0  0  0  0  0  0  0  0  0
    3.0164    2.7498    0.0000 C   0  0  0  0  0  0  0  0  0  0  0  0
  1  2  1  0
  2  3  1  0
  3  4  1  0
  4  5  1  0
  5  6  1  0
  6  7  1  0
  7  8  1  0
  8  9  1  0
  9 10  1  0
 10 11  1  0
 11 12  1  0
 12 13  1  0
 13 14  1  0
 14 15  1  0
 15 16  1  0
 16 17  1  0
 17 18  1  0
 18 19  1  0
 19 20  1  0
 20 21  1  0
 21 22  1  0
 22 23  1  0
 23 24  1  0
 24 25  1  0
 25 26  1  0
 26 27  1  0
 27 28  1  0
 28 29  1  0
 29 30  1  0
 30 31  1  0
 31 32  1  0
 32 33  1  0
 33 34  1  0
 34 35  1  0
 35 36  1  0
 36 37  1  0
 37 38  1  0
 38 39  1  0
 39 40  1  0
 40 41  1  0
 41 42  1  0
 42 43  1  0
 43 44  1  0
 44 45  1  0
 45 46  1  0
 46 47  1  0
 47 48  1  0
 48 49  1  0
 49 50  1  0
 50 51  1  0
 51 52  1  0
 52 53  1  0
 53 54  1  0
 54 55  1  0
 55 56  1  0
 56 57  1  0
 57 58  1  0
 58 59  1  0
 59 60  1  0
 60 61  1  0
 61 62  1  0
 62 63  1  0
 63 64  1  0
 64 65  1  0
 65 66  1  0
 66 67  1  0
 67 68  1  0
 68 69  1  0
 69 70  1  0
 70 71  1  0
 71 72  1  0
 72 73  1  0
 73 74  1  0
 74 75  1  0
 75 76  1  0
 76 77  1  0
 77 78  1  0
 78 79  1  0
 79 80  1  0
 80 81  2  0
 81 82  1  0
 82 83  2  0
 83 84  1  0
 84 85  2  0
 85 86  1  0
 86 87  2  0
 87 88  1  0
 88 89  2  0
 89 90  1  0
 90 91  2  0
 91 92  1  0
 92 93  2  0
 93  2  1  0
 93 77  1  0
M  END
>  <Title>  (64) 
idAAANgen14

$$$$

     RDKit          2D

 25 28  0  0  0  0  0  0  0  0999 V2000
   -3.0000   -2.5981    0.0000 C   0  0  0  0  0  0  0  0  0  0  0  0
   -1.5000   -2.5981    0.0000 C   0  0  0  0  0  0  0  0  0  0  0  0
   -0.7500   -3.8971    0.0000 C   0  0  0  0  0  0  0  0  0  0  0  0
    0.7500   -3.8971    0.0000 N   0  0  0  0  0  0  0  0  0  0  0  0
    1.5000   -2.5981    0.0000 C   0  0  0  0  0  0  0  0  0  0  0  0
    3.0000   -2.5981    0.0000 C   0  0  0  0  0  0  0  0  0  0  0  0
    3.7500   -1.2990    0.0000 O   0  0  0  0  0  0  0  0  0  0  0  0
    3.7500   -3.8971    0.0000 N   0  0  0  0  0  0  0  0  0  0  0  0
    5.2500   -3.8971    0.0000 C   0  0  0  0  0  0  0  0  0  0  0  0
    6.1317   -2.6836    0.0000 N   0  0  0  0  0  0  0  0  0  0  0  0
    7.5583   -3.1471    0.0000 N   0  0  0  0  0  0  0  0  0  0  0  0
    7.5583   -4.6471    0.0000 N   0  0  0  0  0  0  0  0  0  0  0  0
    6.1317   -5.1106    0.0000 N   0  0  0  0  0  0  0  0  0  0  0  0
    5.6682   -6.5372    0.0000 N   0  0  0  0  0  0  0  0  0  0  0  0
    4.2009   -6.8491    0.0000 C   0  0  0  0  0  0  0  0  0  0  0  0
    3.7374   -8.2757    0.0000 N   0  0  0  0  0  0  0  0  0  0  0  0
    4.7411   -9.3904    0.0000 N   0  0  0  0  0  0  0  0  0  0  0  0
    6.2083   -9.0785    0.0000 N   0  0  0  0  0  0  0  0  0  0  0  0
    6.6718   -7.6519    0.0000 N   0  0  0  0  0  0  0  0  0  0  0  0
    0.7500   -1.2990    0.0000 C   0  0  0  0  0  0  0  0  0  0  0  0
    1.5000    0.0000    0.0000 C   0  0  0  0  0  0  0  0  0  0  0  0
    0.7500    1.2990    0.0000 C   0  0  0  0  0  0  0  0  0  0  0  0
   -0.7500    1.2990    0.0000 C   0  0  0  0  0  0  0  0  0  0  0  0
   -1.5000    0.0000    0.0000 C   0  0  0  0  0  0  0  0  0  0  0  0
   -0.7500   -1.2990    0.0000 C   0  0  0  0  0  0  0  0  0  0  0  0
  1  2  1  0
  2  3  2  0
  3  4  1  0
  4  5  2  0
  5  6  1  0
  6  7  2  0
  6  8  1  0
  8  9  1  0
  9 10  2  0
 10 11  1  0
 11 12  2  0
 12 13  1  0
 13 14  1  0
 14 15  1  0
 15 16  2  0
 16 17  1  0
 17 18  2  0
 18 19  1  0
  5 20  1  0
 20 21  2  0
 21 22  1  0
 22 23  2  0
 23 24  1  0
 24 25  2  0
 25  2  1  0
 13  9  1  0
 19 14  1  0
 25 20  1  0
M  END
>  <Title>  (65) 
idAAAOgen14

$$$$

     RDKit          2D

 15 16  0  0  0  0  0  0  0  0999 V2000
   -2.5081   -6.0187    0.0000 C   0  0  0  0  0  0  0  0  0  0  0  0
   -1.0409   -5.7068    0.0000 C   0  0  0  0  0  0  0  0  0  0  0  0
   -0.0372   -6.8216    0.0000 O   0  0  0  0  0  0  0  0  0  0  0  0
   -0.5773   -4.2803    0.0000 N   0  0  0  0  0  0  0  0  0  0  0  0
    0.8899   -3.9684    0.0000 C   0  0  0  0  0  0  0  0  0  0  0  0
    2.0046   -4.9721    0.0000 N   0  0  0  0  0  0  0  0  0  0  0  0
    3.3037   -4.2221    0.0000 N   0  0  0  0  0  0  0  0  0  0  0  0
    2.9918   -2.7549    0.0000 N   0  0  0  0  0  0  0  0  0  0  0  0
    1.5000   -2.5981    0.0000 N   0  0  0  0  0  0  0  0  0  0  0  0
    0.7500   -1.2990    0.0000 C   0  0  0  0  0  0  0  0  0  0  0  0
    1.5000    0.0000    0.0000 C   0  0  0  0  0  0  0  0  0  0  0  0
    0.7500    1.2990    0.0000 C   0  0  0  0  0  0  0  0  0  0  0  0
   -0.7500    1.2990    0.0000 C   0  0  0  0  0  0  0  0  0  0  0  0
   -1.5000    0.0000    0.0000 C   0  0  0  0  0  0  0  0  0  0  0  0
   -0.7500   -1.2990    0.0000 C   0  0  0  0  0  0  0  0  0  0  0  0
  1  2  1  0
  2  3  2  0
  2  4  1  0
  4  5  1  0
  5  6  2  0
  6  7  1  0
  7  8  2  0
  8  9  1  0
  9 10  1  0
 10 11  2  0
 11 12  1  0
 12 13  1  0
 13 14  1  0
 14 15  2  0
  9  5  1  0
 15 10  1  0
M  END
>  <Title>  (66) 
idAAAPgen14

$$$$

     RDKit          2D

 15 16  0  0  0  0  0  0  0  0999 V2000
    3.0000   -5.1962    0.0000 O   0  0  0  0  0  0  0  0  0  0  0  0
    1.5000   -5.1962    0.0000 C   0  0  0  0  0  0  0  0  0  0  0  0
    0.7500   -3.8971    0.0000 N   0  0  0  0  0  0  0  0  0  0  0  0
    1.5000   -2.5981    0.0000 C   0  0  0  0  0  0  0  0  0  0  0  0
    0.7500   -1.2990    0.0000 C   0  0  0  0  0  0  0  0  0  0  0  0
    1.5000    0.0000    0.0000 C   0  0  0  0  0  0  0  0  0  0  0  0
    0.7500    1.2990    0.0000 S   0  0  0  0  0  0  0  0  0  0  0  0
   -0.7500    1.2990    0.0000 C   0  0  0  0  0  0  0  0  0  0  0  0
   -1.5000    0.0000    0.0000 C   0  0  0  0  0  0  0  0  0  0  0  0
   -0.7500   -1.2990    0.0000 C   0  0  0  0  0  0  0  0  0  0  0  0
    0.7500   -6.4952    0.0000 C   0  0  0  0  0  0  0  0  0  0  0  0
    1.3601   -7.8655    0.0000 C   0  0  0  0  0  0  0  0  0  0  0  0
    0.2454   -8.8692    0.0000 C   0  0  0  0  0  0  0  0  0  0  0  0
   -1.0537   -8.1192    0.0000 C   0  0  0  0  0  0  0  0  0  0  0  0
   -0.7418   -6.6520    0.0000 N   0  0  0  0  0  0  0  0  0  0  0  0
  1  2  1  0
  2  3  1  0
  3  4  1  0
  4  5  1  0
  5  6  2  0
  6  7  1  0
  7  8  1  0
  8  9  1  0
  9 10  2  0
  2 11  1  0
 11 12  2  0
 12 13  1  0
 13 14  1  0
 14 15  2  0
 10  5  1  0
 15 11  1  0
M  END
>  <Title>  (67) 
idAAAQgen14

$$$$

     RDKit          2D

 11 11  0  0  0  0  0  0  0  0999 V2000
   10.2760   -0.0000    0.0000 C   0  0  0  0  0  0  0  0  0  0  0  0
    8.7760   -0.0000    0.0000 C   0  0  0  0  0  0  0  0  0  0  0  0
    7.2760   -0.0000    0.0000 C   0  0  0  0  0  0  0  0  0  0  0  0
    5.7760   -0.0000    0.0000 C   0  0  0  0  0  0  0  0  0  0  0  0
    4.2760   -0.0000    0.0000 C   0  0  0  0  0  0  0  0  0  0  0  0
    2.7760    0.0000    0.0000 C   0  0  0  0  0  0  0  0  0  0  0  0
    1.2760    0.0000    0.0000 C   0  0  0  0  0  0  0  0  0  0  0  0
    0.3943    1.2135    0.0000 C   0  0  0  0  0  0  0  0  0  0  0  0
   -1.0323    0.7500    0.0000 C   0  0  0  0  0  0  0  0  0  0  0  0
   -1.0323   -0.7500    0.0000 C   0  0  0  0  0  0  0  0  0  0  0  0
    0.3943   -1.2135    0.0000 N   0  0  0  0  0  0  0  0  0  0  0  0
  1  2  3  0
  2  3  1  0
  3  4  3  0
  4  5  1  0
  5  6  3  0
  6  7  1  0
  7  8  2  0
  8  9  1  0
  9 10  1  0
 10 11  2  0
 11  7  1  0
M  END
>  <Title>  (68) 
idAAARgen14

$$$$

     RDKit          2D

123123  0  0  0  0  0  0  0  0999 V2000
   30.6286    0.0000    0.0000 C   0  0  0  0  0  0  0  0  0  0  0  0
   29.1286    0.0000    0.0000 C   0  0  0  0  0  0  0  0  0  0  0  0
   29.0900   -1.4995    0.0000 C   0  0  0  0  0  0  0  0  0  0  0  0
   28.9742   -2.9950    0.0000 C   0  0  0  0  0  0  0  0  0  0  0  0
   28.7816   -4.4826    0.0000 C   0  0  0  0  0  0  0  0  0  0  0  0
   28.5127   -5.9583    0.0000 C   0  0  0  0  0  0  0  0  0  0  0  0
   28.1681   -7.4182    0.0000 C   0  0  0  0  0  0  0  0  0  0  0  0
   27.7489   -8.8584    0.0000 C   0  0  0  0  0  0  0  0  0  0  0  0
   27.2561  -10.2752    0.0000 C   0  0  0  0  0  0  0  0  0  0  0  0
   26.6910  -11.6647    0.0000 C   0  0  0  0  0  0  0  0  0  0  0  0
   26.0551  -13.0232    0.0000 C   0  0  0  0  0  0  0  0  0  0  0  0
   25.3502  -14.3472    0.0000 C   0  0  0  0  0  0  0  0  0  0  0  0
   24.5780  -15.6332    0.0000 C   0  0  0  0  0  0  0  0  0  0  0  0
   23.7406  -16.8777    0.0000 C   0  0  0  0  0  0  0  0  0  0  0  0
   22.8403  -18.0775    0.0000 C   0  0  0  0  0  0  0  0  0  0  0  0
   21.8794  -19.2293    0.0000 C   0  0  0  0  0  0  0  0  0  0  0  0
   20.8605  -20.3301    0.0000 C   0  0  0  0  0  0  0  0  0  0  0  0
   19.7863  -21.3770    0.0000 C   0  0  0  0  0  0  0  0  0  0  0  0
   18.6596  -22.3673    0.0000 C   0  0  0  0  0  0  0  0  0  0  0  0
   17.4834  -23.2982    0.0000 C   0  0  0  0  0  0  0  0  0  0  0  0
   16.2608  -24.1673    0.0000 C   0  0  0  0  0  0  0  0  0  0  0  0
   14.9952  -24.9724    0.0000 C   0  0  0  0  0  0  0  0  0  0  0  0
   13.6898  -25.7112    0.0000 C   0  0  0  0  0  0  0  0  0  0  0  0
   12.3480  -26.3818    0.0000 C   0  0  0  0  0  0  0  0  0  0  0  0
   10.9735  -26.9825    0.0000 C   0  0  0  0  0  0  0  0  0  0  0  0
    9.5700  -27.5116    0.0000 C   0  0  0  0  0  0  0  0  0  0  0  0
    8.1410  -27.9678    0.0000 C   0  0  0  0  0  0  0  0  0  0  0  0
    6.6905  -28.3498    0.0000 C   0  0  0  0  0  0  0  0  0  0  0  0
    5.2222  -28.6566    0.0000 C   0  0  0  0  0  0  0  0  0  0  0  0
    3.7401  -28.8875    0.0000 C   0  0  0  0  0  0  0  0  0  0  0  0
    2.2480  -29.0417    0.0000 C   0  0  0  0  0  0  0  0  0  0  0  0
    0.7500  -29.1189    0.0000 C   0  0  0  0  0  0  0  0  0  0  0  0
   -0.7500  -29.1189    0.0000 C   0  0  0  0  0  0  0  0  0  0  0  0
   -2.2480  -29.0417    0.0000 C   0  0  0  0  0  0  0  0  0  0  0  0
   -3.7401  -28.8875    0.0000 C   0  0  0  0  0  0  0  0  0  0  0  0
   -5.2222  -28.6566    0.0000 C   0  0  0  0  0  0  0  0  0  0  0  0
   -6.6905  -28.3498    0.0000 C   0  0  0  0  0  0  0  0  0  0  0  0
   -8.1410  -27.9678    0.0000 C   0  0  0  0  0  0  0  0  0  0  0  0
   -9.5700  -27.5116    0.0000 C   0  0  0  0  0  0  0  0  0  0  0  0
  -10.9735  -26.9825    0.0000 C   0  0  0  0  0  0  0  0  0  0  0  0
  -12.3480  -26.3818    0.0000 C   0  0  0  0  0  0  0  0  0  0  0  0
  -13.6898  -25.7112    0.0000 C   0  0  0  0  0  0  0  0  0  0  0  0
  -14.9952  -24.9724    0.0000 C   0  0  0  0  0  0  0  0  0  0  0  0
  -16.2608  -24.1673    0.0000 C   0  0  0  0  0  0  0  0  0  0  0  0
  -17.4834  -23.2982    0.0000 C   0  0  0  0  0  0  0  0  0  0  0  0
  -18.6596  -22.3673    0.0000 C   0  0  0  0  0  0  0  0  0  0  0  0
  -19.7863  -21.3770    0.0000 C   0  0  0  0  0  0  0  0  0  0  0  0
  -20.8605  -20.3301    0.0000 C   0  0  0  0  0  0  0  0  0  0  0  0
  -21.8794  -19.2293    0.0000 C   0  0  0  0  0  0  0  0  0  0  0  0
  -22.8403  -18.0775    0.0000 C   0  0  0  0  0  0  0  0  0  0  0  0
  -23.7406  -16.8777    0.0000 C   0  0  0  0  0  0  0  0  0  0  0  0
  -24.5780  -15.6332    0.0000 C   0  0  0  0  0  0  0  0  0  0  0  0
  -25.3502  -14.3472    0.0000 C   0  0  0  0  0  0  0  0  0  0  0  0
  -26.0551  -13.0232    0.0000 C   0  0  0  0  0  0  0  0  0  0  0  0
  -26.6910  -11.6647    0.0000 C   0  0  0  0  0  0  0  0  0  0  0  0
  -27.2561  -10.2752    0.0000 C   0  0  0  0  0  0  0  0  0  0  0  0
  -27.7489   -8.8584    0.0000 C   0  0  0  0  0  0  0  0  0  0  0  0
  -28.1681   -7.4182    0.0000 C   0  0  0  0  0  0  0  0  0  0  0  0
  -28.5127   -5.9583    0.0000 C   0  0  0  0  0  0  0  0  0  0  0  0
  -28.7816   -4.4826    0.0000 C   0  0  0  0  0  0  0  0  0  0  0  0
  -28.9742   -2.9950    0.0000 C   0  0  0  0  0  0  0  0  0  0  0  0
  -29.0900   -1.4995    0.0000 C   0  0  0  0  0  0  0  0  0  0  0  0
  -29.1286    0.0000    0.0000 C   0  0  0  0  0  0  0  0  0  0  0  0
  -29.0900    1.4995    0.0000 C   0  0  0  0  0  0  0  0  0  0  0  0
  -28.9742    2.9950    0.0000 C   0  0  0  0  0  0  0  0  0  0  0  0
  -28.7816    4.4826    0.0000 C   0  0  0  0  0  0  0  0  0  0  0  0
  -28.5127    5.9583    0.0000 C   0  0  0  0  0  0  0  0  0  0  0  0
  -28.1681    7.4182    0.0000 C   0  0  0  0  0  0  0  0  0  0  0  0
  -27.7489    8.8584    0.0000 C   0  0  0  0  0  0  0  0  0  0  0  0
  -27.2561   10.2752    0.0000 C   0  0  0  0  0  0  0  0  0  0  0  0
  -26.6910   11.6647    0.0000 C   0  0  0  0  0  0  0  0  0  0  0  0
  -26.0551   13.0232    0.0000 C   0  0  0  0  0  0  0  0  0  0  0  0
  -25.3502   14.3472    0.0000 C   0  0  0  0  0  0  0  0  0  0  0  0
  -24.5780   15.6332    0.0000 C   0  0  0  0  0  0  0  0  0  0  0  0
  -23.7406   16.8777    0.0000 C   0  0  0  0  0  0  0  0  0  0  0  0
  -22.8403   18.0775    0.0000 C   0  0  0  0  0  0  0  0  0  0  0  0
  -21.8794   19.2293    0.0000 C   0  0  0  0  0  0  0  0  0  0  0  0
  -20.8605   20.3301    0.0000 C   0  0  0  0  0  0  0  0  0  0  0  0
  -19.7863   21.3770    0.0000 C   0  0  0  0  0  0  0  0  0  0  0  0
  -18.6596   22.3673    0.0000 C   0  0  0  0  0  0  0  0  0  0  0  0
  -17.4834   23.2982    0.0000 C   0  0  0  0  0  0  0  0  0  0  0  0
  -16.2608   24.1673    0.0000 C   0  0  0  0  0  0  0  0  0  0  0  0
  -14.9952   24.9724    0.0000 C   0  0  0  0  0  0  0  0  0  0  0  0
  -13.6898   25.7112    0.0000 C   0  0  0  0  0  0  0  0  0  0  0  0
  -12.3480   26.3818    0.0000 C   0  0  0  0  0  0  0  0  0  0  0  0
  -10.9735   26.9825    0.0000 C   0  0  0  0  0  0  0  0  0  0  0  0
   -9.5700   27.5116    0.0000 C   0  0  0  0  0  0  0  0  0  0  0  0
   -8.1410   27.9678    0.0000 C   0  0  0  0  0  0  0  0  0  0  0  0
   -6.6905   28.3498    0.0000 C   0  0  0  0  0  0  0  0  0  0  0  0
   -5.2222   28.6566    0.0000 C   0  0  0  0  0  0  0  0  0  0  0  0
   -3.7401   28.8875    0.0000 C   0  0  0  0  0  0  0  0  0  0  0  0
   -2.2480   29.0417    0.0000 C   0  0  0  0  0  0  0  0  0  0  0  0
   -0.7500   29.1189    0.0000 C   0  0  0  0  0  0  0  0  0  0  0  0
    0.7500   29.1189    0.0000 C   0  0  0  0  0  0  0  0  0  0  0  0
    2.2480   29.0417    0.0000 C   0  0  0  0  0  0  0  0  0  0  0  0
    3.7401   28.8875    0.0000 C   0  0  0  0  0  0  0  0  0  0  0  0
    5.2222   28.6566    0.0000 C   0  0  0  0  0  0  0  0  0  0  0  0
    6.6905   28.3498    0.0000 C   0  0  0  0  0  0  0  0  0  0  0  0
    8.1410   27.9678    0.0000 C   0  0  0  0  0  0  0  0  0  0  0  0
    9.5700   27.5116    0.0000 C   0  0  0  0  0  0  0  0  0  0  0  0
   10.9735   26.9825    0.0000 C   0  0  0  0  0  0  0  0  0  0  0  0
   12.3480   26.3818    0.0000 C   0  0  0  0  0  0  0  0  0  0  0  0
   13.6898   25.7112    0.0000 C   0  0  0  0  0  0  0  0  0  0  0  0
   14.9952   24.9724    0.0000 C   0  0  0  0  0  0  0  0  0  0  0  0
   16.2608   24.1673    0.0000 C   0  0  0  0  0  0  0  0  0  0  0  0
   17.4834   23.2982    0.0000 C   0  0  0  0  0  0  0  0  0  0  0  0
   18.6596   22.3673    0.0000 C   0  0  0  0  0  0  0  0  0  0  0  0
   19.7863   21.3770    0.0000 C   0  0  0  0  0  0  0  0  0  0  0  0
   20.8605   20.3301    0.0000 C   0  0  0  0  0  0  0  0  0  0  0  0
   21.8794   19.2293    0.0000 C   0  0  0  0  0  0  0  0  0  0  0  0
   22.8403   18.0775    0.0000 C   0  0  0  0  0  0  0  0  0  0  0  0
   23.7406   16.8777    0.0000 C   0  0  0  0  0  0  0  0  0  0  0  0
   24.5780   15.6332    0.0000 C   0  0  0  0  0  0  0  0  0  0  0  0
   25.3502   14.3472    0.0000 C   0  0  0  0  0  0  0  0  0  0  0  0
   26.0551   13.0232    0.0000 C   0  0  0  0  0  0  0  0  0  0  0  0
   26.6910   11.6647    0.0000 C   0  0  0  0  0  0  0  0  0  0  0  0
   27.2561   10.2752    0.0000 C   0  0  0  0  0  0  0  0  0  0  0  0
   27.7489    8.8584    0.0000 C   0  0  0  0  0  0  0  0  0  0  0  0
   28.1681    7.4182    0.0000 C   0  0  0  0  0  0  0  0  0  0  0  0
   28.5127    5.9583    0.0000 C   0  0  0  0  0  0  0  0  0  0  0  0
   28.7816    4.4826    0.0000 C   0  0  0  0  0  0  0  0  0  0  0  0
   28.9742    2.9950    0.0000 C   0  0  0  0  0  0  0  0  0  0  0  0
   29.0900    1.4995    0.0000 C   0  0  0  0  0  0  0  0  0  0  0  0
  1  2  1  0
  2  3  1  0
  3  4  2  0
  4  5  1  0
  5  6  2  0
  6  7  1  0
  7  8  2  0
  8  9  1  0
  9 10  1  0
 10 11  1  0
 11 12  1  0
 12 13  1  0
 13 14  1  0
 14 15  1  0
 15 16  1  0
 16 17  1  0
 17 18  1  0
 18 19  1  0
 19 20  1  0
 20 21  1  0
 21 22  1  0
 22 23  1  0
 23 24  1  0
 24 25  1  0
 25 26  1  0
 26 27  1  0
 27 28  1  0
 28 29  1  0
 29 30  1  0
 30 31  1  0
 31 32  1  0
 32 33  1  0
 33 34  1  0
 34 35  1  0
 35 36  1  0
 36 37  1  0
 37 38  1  0
 38 39  1  0
 39 40  1  0
 40 41  1  0
 41 42  1  0
 42 43  1  0
 43 44  1  0
 44 45  1  0
 45 46  1  0
 46 47  1  0
 47 48  1  0
 48 49  1  0
 49 50  1  0
 50 51  1  0
 51 52  1  0
 52 53  1  0
 53 54  1  0
 54 55  1  0
 55 56  1  0
 56 57  1  0
 57 58  1  0
 58 59  1  0
 59 60  1  0
 60 61  1  0
 61 62  1  0
 62 63  1  0
 63 64  1  0
 64 65  1  0
 65 66  1  0
 66 67  1  0
 67 68  1  0
 68 69  1  0
 69 70  1  0
 70 71  1  0
 71 72  1  0
 72 73  1  0
 73 74  1  0
 74 75  1  0
 75 76  1  0
 76 77  1  0
 77 78  1  0
 78 79  1  0
 79 80  1  0
 80 81  1  0
 81 82  1  0
 82 83  1  0
 83 84  1  0
 84 85  1  0
 85 86  1  0
 86 87  1  0
 87 88  1  0
 88 89  1  0
 89 90  1  0
 90 91  1  0
 91 92  1  0
 92 93  1  0
 93 94  1  0
 94 95  1  0
 95 96  1  0
 96 97  1  0
 97 98  1  0
 98 99  1  0
 99100  1  0
100101  1  0
101102  1  0
102103  1  0
103104  1  0
104105  1  0
105106  1  0
106107  1  0
107108  1  0
108109  1  0
109110  1  0
110111  1  0
111112  1  0
112113  1  0
113114  1  0
114115  1  0
115116  1  0
116117  1  0
117118  1  0
118119  1  0
119120  1  0
120121  1  0
121122  1  0
122123  1  0
123  2  1  0
M  END
>  <Title>  (69) 
idAAASgen14

$$$$

     RDKit          2D

 34 38  0  0  0  0  0  0  0  0999 V2000
   -3.0000   -2.5981    0.0000 C   0  0  0  0  0  0  0  0  0  0  0  0
   -1.5000   -2.5981    0.0000 C   0  0  0  0  0  0  0  0  0  0  0  0
   -0.7500   -3.8971    0.0000 C   0  0  0  0  0  0  0  0  0  0  0  0
    0.7500   -3.8971    0.0000 C   0  0  0  0  0  0  0  0  0  0  0  0
    1.5000   -2.5981    0.0000 C   0  0  0  0  0  0  0  0  0  0  0  0
    3.0000   -2.5981    0.0000 C   0  0  0  0  0  0  0  0  0  0  0  0
    3.7500   -1.2990    0.0000 O   0  0  0  0  0  0  0  0  0  0  0  0
    3.7500   -3.8971    0.0000 N   0  0  0  0  0  0  0  0  0  0  0  0
    5.2500   -3.8971    0.0000 C   0  0  0  0  0  0  0  0  0  0  0  0
    6.1317   -2.6836    0.0000 N   0  0  0  0  0  0  0  0  0  0  0  0
    7.5583   -3.1471    0.0000 N   0  0  0  0  0  0  0  0  0  0  0  0
    7.5583   -4.6471    0.0000 N   0  0  0  0  0  0  0  0  0  0  0  0
    6.1317   -5.1106    0.0000 N   0  0  0  0  0  0  0  0  0  0  0  0
    5.6682   -6.5372    0.0000 N   0  0  0  0  0  0  0  0  0  0  0  0
    6.5498   -7.7508    0.0000 C   0  0  0  0  0  0  0  0  0  0  0  0
    5.6682   -8.9643    0.0000 C   0  0  0  0  0  0  0  0  0  0  0  0
    4.2416   -8.5008    0.0000 N   0  0  0  0  0  0  0  0  0  0  0  0
    3.0280   -9.3824    0.0000 C   0  0  0  0  0  0  0  0  0  0  0  0
    3.1848  -10.8742    0.0000 O   0  0  0  0  0  0  0  0  0  0  0  0
    1.6577   -8.7723    0.0000 N   0  0  0  0  0  0  0  0  0  0  0  0
    0.4442   -9.6540    0.0000 C   0  0  0  0  0  0  0  0  0  0  0  0
   -0.9261   -9.0439    0.0000 N   0  0  0  0  0  0  0  0  0  0  0  0
   -2.1396   -9.9256    0.0000 N   0  0  0  0  0  0  0  0  0  0  0  0
   -1.9829  -11.4174    0.0000 N   0  0  0  0  0  0  0  0  0  0  0  0
   -0.6125  -12.0275    0.0000 N   0  0  0  0  0  0  0  0  0  0  0  0
    0.6010  -11.1458    0.0000 N   0  0  0  0  0  0  0  0  0  0  0  0
    4.2416   -7.0008    0.0000 C   0  0  0  0  0  0  0  0  0  0  0  0
    3.0280   -6.1191    0.0000 O   0  0  0  0  0  0  0  0  0  0  0  0
    0.7500   -1.2990    0.0000 C   0  0  0  0  0  0  0  0  0  0  0  0
    1.5000    0.0000    0.0000 C   0  0  0  0  0  0  0  0  0  0  0  0
    0.7500    1.2990    0.0000 C   0  0  0  0  0  0  0  0  0  0  0  0
   -0.7500    1.2990    0.0000 C   0  0  0  0  0  0  0  0  0  0  0  0
   -1.5000    0.0000    0.0000 C   0  0  0  0  0  0  0  0  0  0  0  0
   -0.7500   -1.2990    0.0000 C   0  0  0  0  0  0  0  0  0  0  0  0
  1  2  1  0
  2  3  2  0
  3  4  1  0
  4  5  2  0
  5  6  1  0
  6  7  2  0
  6  8  1  0
  8  9  1  0
  9 10  2  0
 10 11  1  0
 11 12  2  0
 12 13  1  0
 13 14  1  0
 14 15  1  0
 15 16  1  0
 16 17  1  0
 17 18  1  0
 18 19  2  0
 18 20  1  0
 20 21  1  0
 21 22  2  0
 22 23  1  0
 23 24  2  0
 24 25  1  0
 25 26  2  0
 17 27  1  0
 27 28  2  0
  5 29  1  0
 29 30  2  0
 30 31  1  0
 31 32  2  0
 32 33  1  0
 33 34  2  0
 34  2  1  0
 13  9  1  0
 27 14  1  0
 34 29  1  0
 26 21  1  0
M  END
>  <Title>  (70) 
idAAATgen14

$$$$

     RDKit          2D

  7  7  0  0  0  0  0  0  0  0999 V2000
    3.0000    0.0000    0.0000 C   0  0  0  0  0  0  0  0  0  0  0  0
    1.5000    0.0000    0.0000 C   0  0  0  0  0  0  0  0  0  0  0  0
    0.7500   -1.2990    0.0000 C   0  0  0  0  0  0  0  0  0  0  0  0
   -0.7500   -1.2990    0.0000 C   0  0  0  0  0  0  0  0  0  0  0  0
   -1.5000    0.0000    0.0000 C   0  0  0  0  0  0  0  0  0  0  0  0
   -0.7500    1.2990    0.0000 N   0  0  0  0  0  0  0  0  0  0  0  0
    0.7500    1.2990    0.0000 N   0  0  0  0  0  0  0  0  0  0  0  0
  1  2  1  0
  2  3  1  0
  3  4  1  0
  4  5  2  0
  5  6  1  0
  6  7  2  0
  7  2  1  0
M  END
>  <Title>  (71) 
idAAAUgen14

$$$$

     RDKit          2D

 26 29  0  0  0  0  0  0  0  0999 V2000
   -3.0000   -2.5981    0.0000 C   0  0  0  0  0  0  0  0  0  0  0  0
   -1.5000   -2.5981    0.0000 C   0  0  0  0  0  0  0  0  0  0  0  0
   -0.7500   -3.8971    0.0000 C   0  0  0  0  0  0  0  0  0  0  0  0
    0.7500   -3.8971    0.0000 C   0  0  0  0  0  0  0  0  0  0  0  0
    1.5000   -2.5981    0.0000 C   0  0  0  0  0  0  0  0  0  0  0  0
    3.0000   -2.5981    0.0000 C   0  0  0  0  0  0  0  0  0  0  0  0
    3.7500   -1.2990    0.0000 O   0  0  0  0  0  0  0  0  0  0  0  0
    3.7500   -3.8971    0.0000 N   0  0  0  0  0  0  0  0  0  0  0  0
    5.2500   -3.8971    0.0000 C   0  0  0  0  0  0  0  0  0  0  0  0
    6.1317   -2.6836    0.0000 N   0  0  0  0  0  0  0  0  0  0  0  0
    7.5583   -3.1471    0.0000 N   0  0  0  0  0  0  0  0  0  0  0  0
    7.5583   -4.6471    0.0000 N   0  0  0  0  0  0  0  0  0  0  0  0
    6.1317   -5.1106    0.0000 N   0  0  0  0  0  0  0  0  0  0  0  0
    5.6682   -6.5372    0.0000 C   0  0  0  0  0  0  0  0  0  0  0  0
    4.2009   -6.8491    0.0000 C   0  0  0  0  0  0  0  0  0  0  0  0
    3.7374   -8.2757    0.0000 C   0  0  0  0  0  0  0  0  0  0  0  0
    4.7411   -9.3904    0.0000 C   0  0  0  0  0  0  0  0  0  0  0  0
    4.2776  -10.8170    0.0000 O   0  0  0  0  0  0  0  0  0  0  0  0
    6.2083   -9.0785    0.0000 C   0  0  0  0  0  0  0  0  0  0  0  0
    6.6718   -7.6519    0.0000 C   0  0  0  0  0  0  0  0  0  0  0  0
    0.7500   -1.2990    0.0000 C   0  0  0  0  0  0  0  0  0  0  0  0
    1.5000    0.0000    0.0000 C   0  0  0  0  0  0  0  0  0  0  0  0
    0.7500    1.2990    0.0000 C   0  0  0  0  0  0  0  0  0  0  0  0
   -0.7500    1.2990    0.0000 C   0  0  0  0  0  0  0  0  0  0  0  0
   -1.5000    0.0000    0.0000 C   0  0  0  0  0  0  0  0  0  0  0  0
   -0.7500   -1.2990    0.0000 C   0  0  0  0  0  0  0  0  0  0  0  0
  1  2  1  0
  2  3  1  0
  3  4  2  0
  4  5  1  0
  5  6  1  0
  6  7  2  0
  6  8  1  0
  8  9  1  0
  9 10  2  0
 10 11  1  0
 11 12  2  0
 12 13  1  0
 13 14  1  0
 14 15  2  0
 15 16  1  0
 16 17  2  0
 17 18  1  0
 17 19  1  0
 19 20  2  0
  5 21  1  0
 21 22  2  0
 22 23  1  0
 23 24  2  0
 24 25  1  0
 25 26  2  0
 26  2  1  0
 13  9  1  0
 20 14  1  0
 26 21  1  0
M  END
>  <Title>  (72) 
idAAAVgen14

$$$$

     RDKit          2D

 98 99  0  0  0  0  0  0  0  0999 V2000
    2.5578   -3.9296    0.0000 C   0  0  0  0  0  0  0  0  0  0  0  0
    3.3061   -4.2044    0.0000 C   0  0  0  0  0  0  0  0  0  0  0  0
    2.8454   -5.6319    0.0000 C   0  0  0  0  0  0  0  0  0  0  0  0
    2.4996   -7.0915    0.0000 C   0  0  0  0  0  0  0  0  0  0  0  0
    2.2708   -8.5740    0.0000 C   0  0  0  0  0  0  0  0  0  0  0  0
    2.1605  -10.0699    0.0000 C   0  0  0  0  0  0  0  0  0  0  0  0
    2.1695  -11.5699    0.0000 C   0  0  0  0  0  0  0  0  0  0  0  0
    2.2976  -13.0644    0.0000 C   0  0  0  0  0  0  0  0  0  0  0  0
    2.5440  -14.5440    0.0000 C   0  0  0  0  0  0  0  0  0  0  0  0
    2.9072  -15.9994    0.0000 C   0  0  0  0  0  0  0  0  0  0  0  0
    3.3849  -17.4213    0.0000 C   0  0  0  0  0  0  0  0  0  0  0  0
    3.9740  -18.8008    0.0000 C   0  0  0  0  0  0  0  0  0  0  0  0
    4.6709  -20.1291    0.0000 C   0  0  0  0  0  0  0  0  0  0  0  0
    5.4711  -21.3978    0.0000 C   0  0  0  0  0  0  0  0  0  0  0  0
    6.3696  -22.5989    0.0000 C   0  0  0  0  0  0  0  0  0  0  0  0
    7.3607  -23.7249    0.0000 C   0  0  0  0  0  0  0  0  0  0  0  0
    8.4381  -24.7685    0.0000 C   0  0  0  0  0  0  0  0  0  0  0  0
    9.5950  -25.7233    0.0000 C   0  0  0  0  0  0  0  0  0  0  0  0
   10.8241  -26.5831    0.0000 C   0  0  0  0  0  0  0  0  0  0  0  0
   12.1176  -27.3426    0.0000 C   0  0  0  0  0  0  0  0  0  0  0  0
   13.4674  -27.9968    0.0000 C   0  0  0  0  0  0  0  0  0  0  0  0
   14.8649  -28.5418    0.0000 C   0  0  0  0  0  0  0  0  0  0  0  0
   16.3013  -28.9740    0.0000 C   0  0  0  0  0  0  0  0  0  0  0  0
   17.7675  -29.2907    0.0000 C   0  0  0  0  0  0  0  0  0  0  0  0
   19.2542  -29.4900    0.0000 C   0  0  0  0  0  0  0  0  0  0  0  0
   20.7520  -29.5705    0.0000 C   0  0  0  0  0  0  0  0  0  0  0  0
   22.2515  -29.5317    0.0000 C   0  0  0  0  0  0  0  0  0  0  0  0
   23.7432  -29.3739    0.0000 C   0  0  0  0  0  0  0  0  0  0  0  0
   25.2176  -29.0981    0.0000 C   0  0  0  0  0  0  0  0  0  0  0  0
   26.6655  -28.7061    0.0000 C   0  0  0  0  0  0  0  0  0  0  0  0
   28.0776  -28.2002    0.0000 C   0  0  0  0  0  0  0  0  0  0  0  0
   29.4451  -27.5837    0.0000 C   0  0  0  0  0  0  0  0  0  0  0  0
   30.7593  -26.8606    0.0000 C   0  0  0  0  0  0  0  0  0  0  0  0
   32.0118  -26.0353    0.0000 C   0  0  0  0  0  0  0  0  0  0  0  0
   33.1949  -25.1131    0.0000 C   0  0  0  0  0  0  0  0  0  0  0  0
   34.3009  -24.0999    0.0000 C   0  0  0  0  0  0  0  0  0  0  0  0
   35.3229  -23.0019    0.0000 C   0  0  0  0  0  0  0  0  0  0  0  0
   36.2545  -21.8263    0.0000 C   0  0  0  0  0  0  0  0  0  0  0  0
   37.0897  -20.5803    0.0000 C   0  0  0  0  0  0  0  0  0  0  0  0
   37.8233  -19.2719    0.0000 C   0  0  0  0  0  0  0  0  0  0  0  0
   38.4506  -17.9094    0.0000 C   0  0  0  0  0  0  0  0  0  0  0  0
   38.9677  -16.5013    0.0000 C   0  0  0  0  0  0  0  0  0  0  0  0
   39.3712  -15.0566    0.0000 C   0  0  0  0  0  0  0  0  0  0  0  0
   39.6588  -13.5845    0.0000 C   0  0  0  0  0  0  0  0  0  0  0  0
   39.8284  -12.0941    0.0000 C   0  0  0  0  0  0  0  0  0  0  0  0
   39.8791  -10.5949    0.0000 C   0  0  0  0  0  0  0  0  0  0  0  0
   39.8105   -9.0965    0.0000 C   0  0  0  0  0  0  0  0  0  0  0  0
   39.6231   -7.6083    0.0000 C   0  0  0  0  0  0  0  0  0  0  0  0
   39.3181   -6.1396    0.0000 C   0  0  0  0  0  0  0  0  0  0  0  0
   38.8973   -4.6998    0.0000 C   0  0  0  0  0  0  0  0  0  0  0  0
   38.3634   -3.2980    0.0000 C   0  0  0  0  0  0  0  0  0  0  0  0
   37.7199   -1.9431    0.0000 C   0  0  0  0  0  0  0  0  0  0  0  0
   36.9708   -0.6436    0.0000 C   0  0  0  0  0  0  0  0  0  0  0  0
   36.1208    0.5923    0.0000 C   0  0  0  0  0  0  0  0  0  0  0  0
   35.1752    1.7568    0.0000 C   0  0  0  0  0  0  0  0  0  0  0  0
   34.1402    2.8425    0.0000 C   0  0  0  0  0  0  0  0  0  0  0  0
   33.0221    3.8425    0.0000 C   0  0  0  0  0  0  0  0  0  0  0  0
   31.8282    4.7505    0.0000 C   0  0  0  0  0  0  0  0  0  0  0  0
   30.5659    5.5608    0.0000 C   0  0  0  0  0  0  0  0  0  0  0  0
   29.2432    6.2682    0.0000 C   0  0  0  0  0  0  0  0  0  0  0  0
   27.8684    6.8683    0.0000 C   0  0  0  0  0  0  0  0  0  0  0  0
   26.4504    7.3573    0.0000 C   0  0  0  0  0  0  0  0  0  0  0  0
   24.9979    7.7320    0.0000 C   0  0  0  0  0  0  0  0  0  0  0  0
   23.5203    7.9902    0.0000 C   0  0  0  0  0  0  0  0  0  0  0  0
   22.0269    8.1302    0.0000 C   0  0  0  0  0  0  0  0  0  0  0  0
   20.5270    8.1511    0.0000 C   0  0  0  0  0  0  0  0  0  0  0  0
   19.0302    8.0527    0.0000 C   0  0  0  0  0  0  0  0  0  0  0  0
   17.5460    7.8357    0.0000 C   0  0  0  0  0  0  0  0  0  0  0  0
   16.0837    7.5015    0.0000 C   0  0  0  0  0  0  0  0  0  0  0  0
   14.6526    7.0522    0.0000 C   0  0  0  0  0  0  0  0  0  0  0  0
   13.2617    6.4906    0.0000 C   0  0  0  0  0  0  0  0  0  0  0  0
   11.9198    5.8203    0.0000 C   0  0  0  0  0  0  0  0  0  0  0  0
   10.6354    5.0455    0.0000 C   0  0  0  0  0  0  0  0  0  0  0  0
    9.4167    4.1710    0.0000 C   0  0  0  0  0  0  0  0  0  0  0  0
    8.2712    3.2026    0.0000 C   0  0  0  0  0  0  0  0  0  0  0  0
    7.2064    2.1461    0.0000 C   0  0  0  0  0  0  0  0  0  0  0  0
    6.2288    1.0084    0.0000 C   0  0  0  0  0  0  0  0  0  0  0  0
    5.3447   -0.2034    0.0000 C   0  0  0  0  0  0  0  0  0  0  0  0
    4.5597   -1.4815    0.0000 C   0  0  0  0  0  0  0  0  0  0  0  0
    4.0943   -0.0000    0.0000 C   0  0  0  0  0  0  0  0  0  0  0  0
    3.8939    1.2652    0.0000 C   0  0  0  0  0  0  0  0  0  0  0  0
    3.3124    2.4066    0.0000 C   0  0  0  0  0  0  0  0  0  0  0  0
    2.4066    3.3124    0.0000 C   0  0  0  0  0  0  0  0  0  0  0  0
    1.2652    3.8939    0.0000 C   0  0  0  0  0  0  0  0  0  0  0  0
    0.0000    4.0943    0.0000 C   0  0  0  0  0  0  0  0  0  0  0  0
   -1.2652    3.8939    0.0000 C   0  0  0  0  0  0  0  0  0  0  0  0
   -2.4066    3.3124    0.0000 C   0  0  0  0  0  0  0  0  0  0  0  0
   -3.3124    2.4066    0.0000 C   0  0  0  0  0  0  0  0  0  0  0  0
   -3.8939    1.2652    0.0000 C   0  0  0  0  0  0  0  0  0  0  0  0
   -4.0943    0.0000    0.0000 C   0  0  0  0  0  0  0  0  0  0  0  0
   -3.8939   -1.2652    0.0000 C   0  0  0  0  0  0  0  0  0  0  0  0
   -3.3124   -2.4066    0.0000 C   0  0  0  0  0  0  0  0  0  0  0  0
   -2.4066   -3.3124    0.0000 C   0  0  0  0  0  0  0  0  0  0  0  0
   -1.2652   -3.8939    0.0000 C   0  0  0  0  0  0  0  0  0  0  0  0
   -0.0000   -4.0943    0.0000 C   0  0  0  0  0  0  0  0  0  0  0  0
    1.2652   -3.8939    0.0000 C   0  0  0  0  0  0  0  0  0  0  0  0
    2.4066   -3.3124    0.0000 C   0  0  0  0  0  0  0  0  0  0  0  0
    3.8787   -2.8180    0.0000 C   0  0  0  0  0  0  0  0  0  0  0  0
  1  2  1  0
  2  3  1  0
  3  4  1  0
  4  5  1  0
  5  6  1  0
  6  7  1  0
  7  8  1  0
  8  9  1  0
  9 10  1  0
 10 11  1  0
 11 12  1  0
 12 13  1  0
 13 14  1  0
 14 15  1  0
 15 16  1  0
 16 17  1  0
 17 18  1  0
 18 19  1  0
 19 20  1  0
 20 21  1  0
 21 22  1  0
 22 23  1  0
 23 24  1  0
 24 25  1  0
 25 26  1  0
 26 27  1  0
 27 28  1  0
 28 29  1  0
 29 30  1  0
 30 31  1  0
 31 32  1  0
 32 33  1  0
 33 34  1  0
 34 35  1  0
 35 36  1  0
 36 37  1  0
 37 38  1  0
 38 39  1  0
 39 40  1  0
 40 41  1  0
 41 42  1  0
 42 43  1  0
 43 44  1  0
 44 45  1  0
 45 46  1  0
 46 47  1  0
 47 48  1  0
 48 49  1  0
 49 50  1  0
 50 51  1  0
 51 52  1  0
 52 53  1  0
 53 54  1  0
 54 55  1  0
 55 56  1  0
 56 57  1  0
 57 58  1  0
 58 59  1  0
 59 60  1  0
 60 61  1  0
 61 62  1  0
 62 63  1  0
 63 64  1  0
 64 65  1  0
 65 66  1  0
 66 67  1  0
 67 68  1  0
 68 69  1  0
 69 70  1  0
 70 71  1  0
 71 72  1  0
 72 73  1  0
 73 74  1  0
 74 75  1  0
 75 76  1  0
 76 77  1  0
 77 78  1  0
 78 79  1  0
 79 80  1  0
 80 81  1  0
 81 82  1  0
 82 83  1  0
 83 84  1  0
 84 85  1  0
 85 86  2  0
 86 87  1  0
 87 88  2  0
 88 89  1  0
 89 90  2  0
 90 91  1  0
 91 92  2  0
 92 93  1  0
 93 94  2  0
 94 95  1  0
 95 96  2  0
 96 97  1  0
 97 98  2  0
 98  2  1  0
 98 79  1  0
M  END
>  <Title>  (73) 
idAAAWgen14

$$$$

     RDKit          2D

 35 34  0  0  0  0  0  0  0  0999 V2000
    0.0000    0.0000    0.0000 C   0  0  0  0  0  0  0  0  0  0  0  0
   -0.0000   -1.5000    0.0000 C   0  0  0  0  0  0  0  0  0  0  0  0
   -0.0000   -3.0000    0.0000 C   0  0  0  0  0  0  0  0  0  0  0  0
   -0.0000   -4.5000    0.0000 C   0  0  0  0  0  0  0  0  0  0  0  0
   -0.0000   -6.0000    0.0000 C   0  0  0  0  0  0  0  0  0  0  0  0
   -0.0000   -7.5000    0.0000 C   0  0  0  0  0  0  0  0  0  0  0  0
   -0.0000   -9.0000    0.0000 C   0  0  0  0  0  0  0  0  0  0  0  0
   -0.0000  -10.5000    0.0000 C   0  0  0  0  0  0  0  0  0  0  0  0
   -0.0000  -12.0000    0.0000 C   0  0  0  0  0  0  0  0  0  0  0  0
   -0.0000  -13.5000    0.0000 C   0  0  0  0  0  0  0  0  0  0  0  0
   -0.0000  -15.0000    0.0000 C   0  0  0  0  0  0  0  0  0  0  0  0
   -0.0000  -16.5000    0.0000 C   0  0  0  0  0  0  0  0  0  0  0  0
   -0.0000  -18.0000    0.0000 C   0  0  0  0  0  0  0  0  0  0  0  0
   -0.0000  -19.5000    0.0000 C   0  0  0  0  0  0  0  0  0  0  0  0
   -0.0000  -21.0000    0.0000 C   0  0  0  0  0  0  0  0  0  0  0  0
   -0.0000  -22.5000    0.0000 C   0  0  0  0  0  0  0  0  0  0  0  0
   -0.0000  -24.0000    0.0000 C   0  0  0  0  0  0  0  0  0  0  0  0
   -0.0000  -25.5000    0.0000 C   0  0  0  0  0  0  0  0  0  0  0  0
   -0.0000  -27.0000    0.0000 C   0  0  0  0  0  0  0  0  0  0  0  0
   -0.0000  -28.5000    0.0000 C   0  0  0  0  0  0  0  0  0  0  0  0
   -0.0000  -30.0000    0.0000 C   0  0  0  0  0  0  0  0  0  0  0  0
   -0.0000  -31.5000    0.0000 C   0  0  0  0  0  0  0  0  0  0  0  0
   -0.0000  -33.0000    0.0000 C   0  0  0  0  0  0  0  0  0  0  0  0
   -0.0000  -34.5000    0.0000 C   0  0  0  0  0  0  0  0  0  0  0  0
   -0.0000  -36.0000    0.0000 C   0  0  0  0  0  0  0  0  0  0  0  0
   -0.0000  -37.5000    0.0000 C   0  0  0  0  0  0  0  0  0  0  0  0
   -0.0000  -39.0000    0.0000 C   0  0  0  0  0  0  0  0  0  0  0  0
   -0.0000  -40.5000    0.0000 C   0  0  0  0  0  0  0  0  0  0  0  0
   -0.0000  -42.0000    0.0000 C   0  0  0  0  0  0  0  0  0  0  0  0
   -0.0000  -43.5000    0.0000 C   0  0  0  0  0  0  0  0  0  0  0  0
   -0.0000  -45.0000    0.0000 C   0  0  0  0  0  0  0  0  0  0  0  0
    1.2990  -45.7500    0.0000 C   0  0  0  0  0  0  0  0  0  0  0  0
    1.2990  -47.2500    0.0000 C   0  0  0  0  0  0  0  0  0  0  0  0
    2.5981  -48.0000    0.0000 C   0  0  0  0  0  0  0  0  0  0  0  0
    2.5981  -49.5000    0.0000 C   0  0  0  0  0  0  0  0  0  0  0  0
  1  2  3  0
  2  3  1  0
  3  4  3  0
  4  5  1  0
  5  6  3  0
  6  7  1  0
  7  8  3  0
  8  9  1  0
  9 10  3  0
 10 11  1  0
 11 12  3  0
 12 13  1  0
 13 14  3  0
 14 15  1  0
 15 16  3  0
 16 17  1  0
 17 18  3  0
 18 19  1  0
 19 20  3  0
 20 21  1  0
 21 22  3  0
 22 23  1  0
 23 24  3  0
 24 25  1  0
 25 26  3  0
 26 27  1  0
 27 28  3  0
 28 29  1  0
 29 30  3  0
 30 31  1  0
 31 32  1  0
 32 33  1  0
 33 34  1  0
 34 35  1  0
M  END
>  <Title>  (74) 
idAAAXgen14

$$$$

     RDKit          2D

 23 22  0  0  0  0  0  0  0  0999 V2000
    0.0000    0.0000    0.0000 C   0  0  0  0  0  0  0  0  0  0  0  0
   -0.0000   -1.5000    0.0000 C   0  0  0  0  0  0  0  0  0  0  0  0
   -0.0000   -3.0000    0.0000 C   0  0  0  0  0  0  0  0  0  0  0  0
   -0.0000   -4.5000    0.0000 C   0  0  0  0  0  0  0  0  0  0  0  0
   -0.0000   -6.0000    0.0000 C   0  0  0  0  0  0  0  0  0  0  0  0
   -0.0000   -7.5000    0.0000 C   0  0  0  0  0  0  0  0  0  0  0  0
   -0.0000   -9.0000    0.0000 C   0  0  0  0  0  0  0  0  0  0  0  0
   -0.0000  -10.5000    0.0000 C   0  0  0  0  0  0  0  0  0  0  0  0
   -0.0000  -12.0000    0.0000 C   0  0  0  0  0  0  0  0  0  0  0  0
   -0.0000  -13.5000    0.0000 C   0  0  0  0  0  0  0  0  0  0  0  0
   -0.0000  -15.0000    0.0000 C   0  0  0  0  0  0  0  0  0  0  0  0
   -0.0000  -16.5000    0.0000 C   0  0  0  0  0  0  0  0  0  0  0  0
   -0.0000  -18.0000    0.0000 C   0  0  0  0  0  0  0  0  0  0  0  0
   -0.0000  -19.5000    0.0000 C   0  0  0  0  0  0  0  0  0  0  0  0
   -0.0000  -21.0000    0.0000 C   0  0  0  0  0  0  0  0  0  0  0  0
   -0.0000  -22.5000    0.0000 C   0  0  0  0  0  0  0  0  0  0  0  0
   -0.0000  -24.0000    0.0000 C   0  0  0  0  0  0  0  0  0  0  0  0
   -0.0000  -25.5000    0.0000 C   0  0  0  0  0  0  0  0  0  0  0  0
   -0.0000  -27.0000    0.0000 C   0  0  0  0  0  0  0  0  0  0  0  0
   -0.0000  -28.5000    0.0000 C   0  0  0  0  0  0  0  0  0  0  0  0
   -0.0000  -30.0000    0.0000 C   0  0  0  0  0  0  0  0  0  0  0  0
    1.2990  -30.7500    0.0000 C   0  0  0  0  0  0  0  0  0  0  0  0
   -1.2990  -30.7500    0.0000 C   0  0  0  0  0  0  0  0  0  0  0  0
  1  2  3  0
  2  3  1  0
  3  4  3  0
  4  5  1  0
  5  6  3  0
  6  7  1  0
  7  8  3  0
  8  9  1  0
  9 10  3  0
 10 11  1  0
 11 12  3  0
 12 13  1  0
 13 14  3  0
 14 15  1  0
 15 16  3  0
 16 17  1  0
 17 18  3  0
 18 19  1  0
 19 20  3  0
 20 21  1  0
 21 22  1  0
 21 23  1  0
M  END
>  <Title>  (75) 
idAAAYgen14

$$$$

     RDKit          2D

 19 19  0  0  0  0  0  0  0  0999 V2000
   16.2760   -7.7942    0.0000 C   0  0  0  0  0  0  0  0  0  0  0  0
   14.7760   -7.7942    0.0000 C   0  0  0  0  0  0  0  0  0  0  0  0
   14.0260   -6.4952    0.0000 C   0  0  0  0  0  0  0  0  0  0  0  0
   14.7760   -5.1962    0.0000 N   0  0  0  0  0  0  0  0  0  0  0  0
   12.5260   -6.4952    0.0000 C   0  0  0  0  0  0  0  0  0  0  0  0
   11.7760   -5.1962    0.0000 C   0  0  0  0  0  0  0  0  0  0  0  0
   10.2760   -5.1962    0.0000 C   0  0  0  0  0  0  0  0  0  0  0  0
    9.5260   -3.8971    0.0000 N   0  0  0  0  0  0  0  0  0  0  0  0
    8.0260   -3.8971    0.0000 N   0  0  0  0  0  0  0  0  0  0  0  0
    7.2760   -2.5981    0.0000 C   0  0  0  0  0  0  0  0  0  0  0  0
    5.7760   -2.5981    0.0000 C   0  0  0  0  0  0  0  0  0  0  0  0
    5.0260   -1.2990    0.0000 N   0  0  0  0  0  0  0  0  0  0  0  0
    3.5260   -1.2990    0.0000 N   0  0  0  0  0  0  0  0  0  0  0  0
    2.7760    0.0000    0.0000 N   0  0  0  0  0  0  0  0  0  0  0  0
    1.2760    0.0000    0.0000 N   0  0  0  0  0  0  0  0  0  0  0  0
    0.3943    1.2135    0.0000 C   0  0  0  0  0  0  0  0  0  0  0  0
   -1.0323    0.7500    0.0000 C   0  0  0  0  0  0  0  0  0  0  0  0
   -1.0323   -0.7500    0.0000 C   0  0  0  0  0  0  0  0  0  0  0  0
    0.3943   -1.2135    0.0000 C   0  0  0  0  0  0  0  0  0  0  0  0
  1  2  1  0
  2  3  1  0
  3  4  1  0
  3  5  1  0
  5  6  1  0
  6  7  1  0
  7  8  2  3
  8  9  1  0
  9 10  1  0
 10 11  1  0
 11 12  2  3
 12 13  1  0
 13 14  2  3
 14 15  1  0
 15 16  1  0
 16 17  2  0
 17 18  1  0
 18 19  1  0
 19 15  1  0
M  END
>  <Title>  (76) 
idAAAZgen14

$$$$

     RDKit          2D

 15 15  0  0  0  0  0  0  0  0999 V2000
    8.2500   -3.8971    0.0000 C   0  0  0  0  0  0  0  0  0  0  0  0
    7.5000   -2.5981    0.0000 C   0  0  0  0  0  0  0  0  0  0  0  0
    6.0000   -2.5981    0.0000 C   0  0  0  0  0  0  0  0  0  0  0  0
    5.2500   -1.2990    0.0000 C   0  0  0  0  0  0  0  0  0  0  0  0
    6.0000    0.0000    0.0000 O   0  0  0  0  0  0  0  0  0  0  0  0
    3.7500   -1.2990    0.0000 N   0  0  0  0  0  0  0  0  0  0  0  0
    3.0000    0.0000    0.0000 C   0  0  0  0  0  0  0  0  0  0  0  0
    1.5000    0.0000    0.0000 C   0  0  0  0  0  0  0  0  0  0  0  0
    0.7500   -1.2990    0.0000 C   0  0  0  0  0  0  0  0  0  0  0  0
   -0.7500   -1.2990    0.0000 C   0  0  0  0  0  0  0  0  0  0  0  0
   -1.5000    0.0000    0.0000 C   0  0  0  0  0  0  0  0  0  0  0  0
   -3.0000    0.0000    0.0000 C   0  0  0  0  0  0  0  0  0  0  0  0
   -4.5000    0.0000    0.0000 N   0  0  0  0  0  0  0  0  0  0  0  0
   -0.7500    1.2990    0.0000 C   0  0  0  0  0  0  0  0  0  0  0  0
    0.7500    1.2990    0.0000 C   0  0  0  0  0  0  0  0  0  0  0  0
  1  2  1  0
  2  3  1  0
  3  4  1  0
  4  5  2  0
  4  6  1  0
  6  7  1  0
  7  8  1  0
  8  9  2  0
  9 10  1  0
 10 11  2  0
 11 12  1  0
 12 13  3  0
 11 14  1  0
 14 15  2  0
 15  8  1  0
M  END
>  <Title>  (77) 
idAABAgen14

$$$$

     RDKit          2D

 12 11  0  0  0  0  0  0  0  0999 V2000
    0.0000    0.0000    0.0000 C   0  0  0  0  0  0  0  0  0  0  0  0
    1.2990    0.7500    0.0000 C   0  0  0  0  0  0  0  0  0  0  0  0
    2.5981   -0.0000    0.0000 C   0  0  0  0  0  0  0  0  0  0  0  0
    3.8971    0.7500    0.0000 C   0  0  0  0  0  0  0  0  0  0  0  0
    5.1962   -0.0000    0.0000 C   0  0  0  0  0  0  0  0  0  0  0  0
    6.4952    0.7500    0.0000 C   0  0  0  0  0  0  0  0  0  0  0  0
    7.7942   -0.0000    0.0000 N   0  0  0  0  0  0  0  0  0  0  0  0
    9.0933    0.7500    0.0000 C   0  0  0  0  0  0  0  0  0  0  0  0
    9.0933    2.2500    0.0000 O   0  0  0  0  0  0  0  0  0  0  0  0
   10.3923   -0.0000    0.0000 C   0  0  0  0  0  0  0  0  0  0  0  0
   11.6913    0.7500    0.0000 C   0  0  0  0  0  0  0  0  0  0  0  0
   12.9904   -0.0000    0.0000 C   0  0  0  0  0  0  0  0  0  0  0  0
  1  2  2  0
  2  3  1  0
  3  4  1  0
  4  5  1  0
  5  6  1  0
  6  7  1  0
  7  8  1  0
  8  9  2  0
  8 10  1  0
 10 11  1  0
 11 12  1  0
M  END
>  <Title>  (78) 
idAABBgen14

$$$$

     RDKit          2D

 36 40  0  0  0  0  0  0  0  0999 V2000
   -3.1965   -1.7857    0.0000 C   0  0  0  0  0  0  0  0  0  0  0  0
   -1.8107   -2.3597    0.0000 N   0  0  0  0  0  0  0  0  0  0  0  0
   -1.8107   -3.8597    0.0000 C   0  0  0  0  0  0  0  0  0  0  0  0
   -0.7500   -4.9204    0.0000 C   0  0  0  0  0  0  0  0  0  0  0  0
    0.7500   -4.9204    0.0000 C   0  0  0  0  0  0  0  0  0  0  0  0
    1.8107   -3.8597    0.0000 C   0  0  0  0  0  0  0  0  0  0  0  0
    1.8107   -2.3597    0.0000 C   0  0  0  0  0  0  0  0  0  0  0  0
    3.1965   -1.7857    0.0000 C   0  0  0  0  0  0  0  0  0  0  0  0
    3.3923   -0.2985    0.0000 O   0  0  0  0  0  0  0  0  0  0  0  0
    4.3865   -2.6988    0.0000 N   0  0  0  0  0  0  0  0  0  0  0  0
    5.7723   -2.1248    0.0000 C   0  0  0  0  0  0  0  0  0  0  0  0
    6.1225   -0.6662    0.0000 N   0  0  0  0  0  0  0  0  0  0  0  0
    7.6179   -0.5485    0.0000 N   0  0  0  0  0  0  0  0  0  0  0  0
    8.1919   -1.9344    0.0000 N   0  0  0  0  0  0  0  0  0  0  0  0
    7.0513   -2.9085    0.0000 N   0  0  0  0  0  0  0  0  0  0  0  0
    7.1690   -4.4039    0.0000 N   0  0  0  0  0  0  0  0  0  0  0  0
    8.4479   -5.1877    0.0000 C   0  0  0  0  0  0  0  0  0  0  0  0
    8.0978   -6.6462    0.0000 C   0  0  0  0  0  0  0  0  0  0  0  0
    6.6024   -6.7639    0.0000 N   0  0  0  0  0  0  0  0  0  0  0  0
    5.8186   -8.0429    0.0000 C   0  0  0  0  0  0  0  0  0  0  0  0
    6.5344   -9.3611    0.0000 O   0  0  0  0  0  0  0  0  0  0  0  0
    4.3192   -8.0036    0.0000 N   0  0  0  0  0  0  0  0  0  0  0  0
    3.5354   -9.2826    0.0000 C   0  0  0  0  0  0  0  0  0  0  0  0
    2.0359   -9.2433    0.0000 N   0  0  0  0  0  0  0  0  0  0  0  0
    1.2522  -10.5223    0.0000 N   0  0  0  0  0  0  0  0  0  0  0  0
    1.9679  -11.8405    0.0000 N   0  0  0  0  0  0  0  0  0  0  0  0
    3.4674  -11.8797    0.0000 N   0  0  0  0  0  0  0  0  0  0  0  0
    4.2512  -10.6008    0.0000 N   0  0  0  0  0  0  0  0  0  0  0  0
    6.0284   -5.3781    0.0000 C   0  0  0  0  0  0  0  0  0  0  0  0
    4.5698   -5.0279    0.0000 O   0  0  0  0  0  0  0  0  0  0  0  0
    0.7500   -1.2990    0.0000 C   0  0  0  0  0  0  0  0  0  0  0  0
    1.5000    0.0000    0.0000 C   0  0  0  0  0  0  0  0  0  0  0  0
    0.7500    1.2990    0.0000 C   0  0  0  0  0  0  0  0  0  0  0  0
   -0.7500    1.2990    0.0000 C   0  0  0  0  0  0  0  0  0  0  0  0
   -1.5000    0.0000    0.0000 C   0  0  0  0  0  0  0  0  0  0  0  0
   -0.7500   -1.2990    0.0000 C   0  0  0  0  0  0  0  0  0  0  0  0
  1  2  1  0
  2  3  1  0
  3  4  2  0
  4  5  1  0
  5  6  1  0
  6  7  1  0
  7  8  1  0
  8  9  2  0
  8 10  1  0
 10 11  1  0
 11 12  2  0
 12 13  1  0
 13 14  2  0
 14 15  1  0
 15 16  1  0
 16 17  1  0
 17 18  1  0
 18 19  1  0
 19 20  1  0
 20 21  2  0
 20 22  1  0
 22 23  1  0
 23 24  2  0
 24 25  1  0
 25 26  2  0
 26 27  1  0
 27 28  2  0
 19 29  1  0
 29 30  2  0
  7 31  1  0
 31 32  2  0
 32 33  1  0
 33 34  2  0
 34 35  1  0
 35 36  2  0
 36  2  1  0
 15 11  1  0
 29 16  1  0
 36 31  1  0
 28 23  1  0
M  END
>  <Title>  (79) 
idAABCgen14

$$$$

     RDKit          2D

 13 12  0  0  0  0  0  0  0  0999 V2000
    0.0000    0.0000    0.0000 C   0  0  0  0  0  0  0  0  0  0  0  0
    1.2990    0.7500    0.0000 C   0  0  0  0  0  0  0  0  0  0  0  0
    2.5981   -0.0000    0.0000 C   0  0  0  0  0  0  0  0  0  0  0  0
    3.8971    0.7500    0.0000 C   0  0  0  0  0  0  0  0  0  0  0  0
    5.1962   -0.0000    0.0000 C   0  0  0  0  0  0  0  0  0  0  0  0
    5.1962   -1.5000    0.0000 O   0  0  0  0  0  0  0  0  0  0  0  0
    6.4952    0.7500    0.0000 N   0  0  0  0  0  0  0  0  0  0  0  0
    7.7942   -0.0000    0.0000 C   0  0  0  0  0  0  0  0  0  0  0  0
    9.0933    0.7500    0.0000 C   0  0  0  0  0  0  0  0  0  0  0  0
    7.7942   -1.5000    0.0000 C   0  0  0  0  0  0  0  0  0  0  0  0
    9.0933   -2.2500    0.0000 C   0  0  0  0  0  0  0  0  0  0  0  0
    9.0933   -3.7500    0.0000 C   0  0  0  0  0  0  0  0  0  0  0  0
   10.3923   -1.5000    0.0000 C   0  0  0  0  0  0  0  0  0  0  0  0
  1  2  2  0
  2  3  1  0
  3  4  1  0
  4  5  1  0
  5  6  2  0
  5  7  1  0
  7  8  1  0
  8  9  1  0
  8 10  1  0
 10 11  1  0
 11 12  1  0
 11 13  1  0
M  END
>  <Title>  (80) 
idAABDgen14

$$$$

     RDKit          2D

  9  8  0  0  0  0  0  0  0  0999 V2000
    0.0000    0.0000    0.0000 C   0  0  0  0  0  0  0  0  0  0  0  0
    1.2990    0.7500    0.0000 C   0  0  0  0  0  0  0  0  0  0  0  0
    2.5981   -0.0000    0.0000 C   0  0  0  0  0  0  0  0  0  0  0  0
    3.8971    0.7500    0.0000 N   0  0  0  0  0  0  0  0  0  0  0  0
    5.1962   -0.0000    0.0000 C   0  0  0  0  0  0  0  0  0  0  0  0
    5.1962   -1.5000    0.0000 O   0  0  0  0  0  0  0  0  0  0  0  0
    6.4952    0.7500    0.0000 C   0  0  0  0  0  0  0  0  0  0  0  0
    7.7942   -0.0000    0.0000 C   0  0  0  0  0  0  0  0  0  0  0  0
    9.0933    0.7500    0.0000 C   0  0  0  0  0  0  0  0  0  0  0  0
  1  2  1  0
  2  3  2  3
  3  4  1  0
  4  5  1  0
  5  6  2  0
  5  7  1  0
  7  8  1  0
  8  9  1  0
M  END
>  <Title>  (81) 
idAABEgen14

$$$$

     RDKit          2D

  7  7  0  0  0  0  0  0  0  0999 V2000
    3.0000    0.0000    0.0000 C   0  0  0  0  0  0  0  0  0  0  0  0
    1.5000    0.0000    0.0000 N   0  0  0  0  0  0  0  0  0  0  0  0
    0.7500   -1.2990    0.0000 C   0  0  0  0  0  0  0  0  0  0  0  0
   -0.7500   -1.2990    0.0000 C   0  0  0  0  0  0  0  0  0  0  0  0
   -1.5000    0.0000    0.0000 C   0  0  0  0  0  0  0  0  0  0  0  0
   -0.7500    1.2990    0.0000 C   0  0  0  0  0  0  0  0  0  0  0  0
    0.7500    1.2990    0.0000 C   0  0  0  0  0  0  0  0  0  0  0  0
  1  2  1  0
  2  3  1  0
  3  4  2  0
  4  5  1  0
  5  6  1  0
  6  7  1  0
  7  2  1  0
M  END
>  <Title>  (82) 
idAABFgen14

$$$$

     RDKit          2D

  7  6  0  0  0  0  0  0  0  0999 V2000
    0.0000    0.0000    0.0000 C   0  0  0  0  0  0  0  0  0  0  0  0
    1.2990    0.7500    0.0000 C   0  0  0  0  0  0  0  0  0  0  0  0
    2.5981   -0.0000    0.0000 C   0  0  0  0  0  0  0  0  0  0  0  0
    3.8971    0.7500    0.0000 N   0  0  0  0  0  0  0  0  0  0  0  0
    5.1962   -0.0000    0.0000 C   0  0  0  0  0  0  0  0  0  0  0  0
    6.4952    0.7500    0.0000 C   0  0  0  0  0  0  0  0  0  0  0  0
    7.7942   -0.0000    0.0000 C   0  0  0  0  0  0  0  0  0  0  0  0
  1  2  1  0
  2  3  2  3
  3  4  1  0
  4  5  1  0
  5  6  1  0
  6  7  1  0
M  END
>  <Title>  (83) 
idAABGgen14

$$$$

     RDKit          2D

108108  0  0  0  0  0  0  0  0999 V2000
   27.0480   -0.0000    0.0000 C   0  0  0  0  0  0  0  0  0  0  0  0
   25.5480    0.0000    0.0000 C   0  0  0  0  0  0  0  0  0  0  0  0
   25.5040    1.4994    0.0000 C   0  0  0  0  0  0  0  0  0  0  0  0
   25.3721    2.9935    0.0000 C   0  0  0  0  0  0  0  0  0  0  0  0
   25.1526    4.4774    0.0000 C   0  0  0  0  0  0  0  0  0  0  0  0
   24.8465    5.9458    0.0000 C   0  0  0  0  0  0  0  0  0  0  0  0
   24.4547    7.3938    0.0000 C   0  0  0  0  0  0  0  0  0  0  0  0
   23.9787    8.8162    0.0000 C   0  0  0  0  0  0  0  0  0  0  0  0
   23.4199   10.2083    0.0000 C   0  0  0  0  0  0  0  0  0  0  0  0
   22.7805   11.5651    0.0000 C   0  0  0  0  0  0  0  0  0  0  0  0
   22.0625   12.8821    0.0000 C   0  0  0  0  0  0  0  0  0  0  0  0
   21.2684   14.1547    0.0000 C   0  0  0  0  0  0  0  0  0  0  0  0
   20.4011   15.3785    0.0000 C   0  0  0  0  0  0  0  0  0  0  0  0
   19.4634   16.5493    0.0000 C   0  0  0  0  0  0  0  0  0  0  0  0
   18.4586   17.6630    0.0000 C   0  0  0  0  0  0  0  0  0  0  0  0
   17.3902   18.7159    0.0000 C   0  0  0  0  0  0  0  0  0  0  0  0
   16.2618   19.7042    0.0000 C   0  0  0  0  0  0  0  0  0  0  0  0
   15.0774   20.6246    0.0000 C   0  0  0  0  0  0  0  0  0  0  0  0
   13.8410   21.4739    0.0000 C   0  0  0  0  0  0  0  0  0  0  0  0
   12.5569   22.2492    0.0000 C   0  0  0  0  0  0  0  0  0  0  0  0
   11.2295   22.9478    0.0000 C   0  0  0  0  0  0  0  0  0  0  0  0
    9.8634   23.5673    0.0000 C   0  0  0  0  0  0  0  0  0  0  0  0
    8.4633   24.1055    0.0000 C   0  0  0  0  0  0  0  0  0  0  0  0
    7.0340   24.5606    0.0000 C   0  0  0  0  0  0  0  0  0  0  0  0
    5.5805   24.9311    0.0000 C   0  0  0  0  0  0  0  0  0  0  0  0
    4.1077   25.2157    0.0000 C   0  0  0  0  0  0  0  0  0  0  0  0
    2.6208   25.4133    0.0000 C   0  0  0  0  0  0  0  0  0  0  0  0
    1.1248   25.5233    0.0000 C   0  0  0  0  0  0  0  0  0  0  0  0
   -0.3750   25.5453    0.0000 C   0  0  0  0  0  0  0  0  0  0  0  0
   -1.8736   25.4792    0.0000 C   0  0  0  0  0  0  0  0  0  0  0  0
   -3.3657   25.3254    0.0000 C   0  0  0  0  0  0  0  0  0  0  0  0
   -4.8462   25.0842    0.0000 C   0  0  0  0  0  0  0  0  0  0  0  0
   -6.3099   24.7566    0.0000 C   0  0  0  0  0  0  0  0  0  0  0  0
   -7.7520   24.3436    0.0000 C   0  0  0  0  0  0  0  0  0  0  0  0
   -9.1673   23.8467    0.0000 C   0  0  0  0  0  0  0  0  0  0  0  0
  -10.5510   23.2676    0.0000 C   0  0  0  0  0  0  0  0  0  0  0  0
  -11.8983   22.6082    0.0000 C   0  0  0  0  0  0  0  0  0  0  0  0
  -13.2046   21.8710    0.0000 C   0  0  0  0  0  0  0  0  0  0  0  0
  -14.4654   21.0583    0.0000 C   0  0  0  0  0  0  0  0  0  0  0  0
  -15.6763   20.1731    0.0000 C   0  0  0  0  0  0  0  0  0  0  0  0
  -16.8332   19.2183    0.0000 C   0  0  0  0  0  0  0  0  0  0  0  0
  -17.9321   18.1973    0.0000 C   0  0  0  0  0  0  0  0  0  0  0  0
  -18.9692   17.1135    0.0000 C   0  0  0  0  0  0  0  0  0  0  0  0
  -19.9408   15.9708    0.0000 C   0  0  0  0  0  0  0  0  0  0  0  0
  -20.8437   14.7730    0.0000 C   0  0  0  0  0  0  0  0  0  0  0  0
  -21.6748   13.5243    0.0000 C   0  0  0  0  0  0  0  0  0  0  0  0
  -22.4311   12.2289    0.0000 C   0  0  0  0  0  0  0  0  0  0  0  0
  -23.1102   10.8914    0.0000 C   0  0  0  0  0  0  0  0  0  0  0  0
  -23.7095    9.5163    0.0000 C   0  0  0  0  0  0  0  0  0  0  0  0
  -24.2271    8.1085    0.0000 C   0  0  0  0  0  0  0  0  0  0  0  0
  -24.6613    6.6727    0.0000 C   0  0  0  0  0  0  0  0  0  0  0  0
  -25.0104    5.2139    0.0000 C   0  0  0  0  0  0  0  0  0  0  0  0
  -25.2732    3.7371    0.0000 C   0  0  0  0  0  0  0  0  0  0  0  0
  -25.4490    2.2474    0.0000 C   0  0  0  0  0  0  0  0  0  0  0  0
  -25.5370    0.7500    0.0000 C   0  0  0  0  0  0  0  0  0  0  0  0
  -25.5370   -0.7500    0.0000 C   0  0  0  0  0  0  0  0  0  0  0  0
  -25.4490   -2.2474    0.0000 C   0  0  0  0  0  0  0  0  0  0  0  0
  -25.2732   -3.7371    0.0000 C   0  0  0  0  0  0  0  0  0  0  0  0
  -25.0104   -5.2139    0.0000 C   0  0  0  0  0  0  0  0  0  0  0  0
  -24.6613   -6.6727    0.0000 C   0  0  0  0  0  0  0  0  0  0  0  0
  -24.2271   -8.1085    0.0000 C   0  0  0  0  0  0  0  0  0  0  0  0
  -23.7095   -9.5163    0.0000 C   0  0  0  0  0  0  0  0  0  0  0  0
  -23.1102  -10.8914    0.0000 C   0  0  0  0  0  0  0  0  0  0  0  0
  -22.4311  -12.2289    0.0000 C   0  0  0  0  0  0  0  0  0  0  0  0
  -21.6748  -13.5243    0.0000 C   0  0  0  0  0  0  0  0  0  0  0  0
  -20.8437  -14.7730    0.0000 C   0  0  0  0  0  0  0  0  0  0  0  0
  -19.9408  -15.9708    0.0000 C   0  0  0  0  0  0  0  0  0  0  0  0
  -18.9692  -17.1135    0.0000 C   0  0  0  0  0  0  0  0  0  0  0  0
  -17.9321  -18.1973    0.0000 C   0  0  0  0  0  0  0  0  0  0  0  0
  -16.8332  -19.2183    0.0000 C   0  0  0  0  0  0  0  0  0  0  0  0
  -15.6763  -20.1731    0.0000 C   0  0  0  0  0  0  0  0  0  0  0  0
  -14.4654  -21.0583    0.0000 C   0  0  0  0  0  0  0  0  0  0  0  0
  -13.2046  -21.8710    0.0000 C   0  0  0  0  0  0  0  0  0  0  0  0
  -11.8983  -22.6082    0.0000 C   0  0  0  0  0  0  0  0  0  0  0  0
  -10.5510  -23.2676    0.0000 C   0  0  0  0  0  0  0  0  0  0  0  0
   -9.1673  -23.8467    0.0000 C   0  0  0  0  0  0  0  0  0  0  0  0
   -7.7520  -24.3436    0.0000 C   0  0  0  0  0  0  0  0  0  0  0  0
   -6.3099  -24.7566    0.0000 C   0  0  0  0  0  0  0  0  0  0  0  0
   -4.8462  -25.0842    0.0000 C   0  0  0  0  0  0  0  0  0  0  0  0
   -3.3657  -25.3254    0.0000 C   0  0  0  0  0  0  0  0  0  0  0  0
   -1.8736  -25.4792    0.0000 C   0  0  0  0  0  0  0  0  0  0  0  0
   -0.3750  -25.5453    0.0000 C   0  0  0  0  0  0  0  0  0  0  0  0
    1.1248  -25.5233    0.0000 C   0  0  0  0  0  0  0  0  0  0  0  0
    2.6208  -25.4133    0.0000 C   0  0  0  0  0  0  0  0  0  0  0  0
    4.1077  -25.2157    0.0000 C   0  0  0  0  0  0  0  0  0  0  0  0
    5.5805  -24.9311    0.0000 C   0  0  0  0  0  0  0  0  0  0  0  0
    7.0340  -24.5606    0.0000 C   0  0  0  0  0  0  0  0  0  0  0  0
    8.4633  -24.1055    0.0000 C   0  0  0  0  0  0  0  0  0  0  0  0
    9.8634  -23.5673    0.0000 C   0  0  0  0  0  0  0  0  0  0  0  0
   11.2295  -22.9478    0.0000 C   0  0  0  0  0  0  0  0  0  0  0  0
   12.5569  -22.2492    0.0000 C   0  0  0  0  0  0  0  0  0  0  0  0
   13.8410  -21.4739    0.0000 C   0  0  0  0  0  0  0  0  0  0  0  0
   15.0774  -20.6246    0.0000 C   0  0  0  0  0  0  0  0  0  0  0  0
   16.2618  -19.7042    0.0000 C   0  0  0  0  0  0  0  0  0  0  0  0
   17.3902  -18.7159    0.0000 C   0  0  0  0  0  0  0  0  0  0  0  0
   18.4586  -17.6630    0.0000 C   0  0  0  0  0  0  0  0  0  0  0  0
   19.4634  -16.5493    0.0000 C   0  0  0  0  0  0  0  0  0  0  0  0
   20.4011  -15.3785    0.0000 C   0  0  0  0  0  0  0  0  0  0  0  0
   21.2684  -14.1547    0.0000 C   0  0  0  0  0  0  0  0  0  0  0  0
   22.0625  -12.8821    0.0000 C   0  0  0  0  0  0  0  0  0  0  0  0
   22.7805  -11.5651    0.0000 C   0  0  0  0  0  0  0  0  0  0  0  0
   23.4199  -10.2083    0.0000 C   0  0  0  0  0  0  0  0  0  0  0  0
   23.9787   -8.8162    0.0000 C   0  0  0  0  0  0  0  0  0  0  0  0
   24.4547   -7.3938    0.0000 C   0  0  0  0  0  0  0  0  0  0  0  0
   24.8465   -5.9458    0.0000 C   0  0  0  0  0  0  0  0  0  0  0  0
   25.1526   -4.4774    0.0000 C   0  0  0  0  0  0  0  0  0  0  0  0
   25.3721   -2.9935    0.0000 C   0  0  0  0  0  0  0  0  0  0  0  0
   25.5040   -1.4994    0.0000 C   0  0  0  0  0  0  0  0  0  0  0  0
  1  2  1  0
  2  3  1  0
  3  4  2  0
  4  5  1  0
  5  6  2  0
  6  7  1  0
  7  8  2  0
  8  9  1  0
  9 10  2  0
 10 11  1  0
 11 12  2  0
 12 13  1  0
 13 14  2  0
 14 15  1  0
 15 16  2  0
 16 17  1  0
 17 18  2  0
 18 19  1  0
 19 20  2  0
 20 21  1  0
 21 22  2  0
 22 23  1  0
 23 24  2  0
 24 25  1  0
 25 26  2  0
 26 27  1  0
 27 28  2  0
 28 29  1  0
 29 30  2  0
 30 31  1  0
 31 32  2  0
 32 33  1  0
 33 34  2  0
 34 35  1  0
 35 36  2  0
 36 37  1  0
 37 38  2  0
 38 39  1  0
 39 40  1  0
 40 41  1  0
 41 42  1  0
 42 43  1  0
 43 44  1  0
 44 45  1  0
 45 46  1  0
 46 47  1  0
 47 48  1  0
 48 49  1  0
 49 50  1  0
 50 51  1  0
 51 52  1  0
 52 53  1  0
 53 54  1  0
 54 55  1  0
 55 56  1  0
 56 57  1  0
 57 58  1  0
 58 59  1  0
 59 60  1  0
 60 61  1  0
 61 62  1  0
 62 63  1  0
 63 64  1  0
 64 65  1  0
 65 66  1  0
 66 67  1  0
 67 68  1  0
 68 69  1  0
 69 70  1  0
 70 71  1  0
 71 72  1  0
 72 73  1  0
 73 74  1  0
 74 75  1  0
 75 76  1  0
 76 77  1  0
 77 78  1  0
 78 79  1  0
 79 80  1  0
 80 81  1  0
 81 82  1  0
 82 83  1  0
 83 84  1  0
 84 85  1  0
 85 86  1  0
 86 87  1  0
 87 88  1  0
 88 89  1  0
 89 90  1  0
 90 91  1  0
 91 92  1  0
 92 93  1  0
 93 94  1  0
 94 95  1  0
 95 96  1  0
 96 97  1  0
 97 98  1  0
 98 99  1  0
 99100  1  0
100101  1  0
101102  1  0
102103  1  0
103104  1  0
104105  1  0
105106  1  0
106107  1  0
107108  1  0
108  2  1  0
M  END
>  <Title>  (84) 
idAABHgen14

$$$$

     RDKit          2D

 44 49  0  0  0  0  0  0  0  0999 V2000
   -0.6458  -11.4579    0.0000 C   0  0  0  0  0  0  0  0  0  0  0  0
   -0.0718  -10.0721    0.0000 C   0  0  0  0  0  0  0  0  0  0  0  0
   -0.9849   -8.8820    0.0000 C   0  0  0  0  0  0  0  0  0  0  0  0
   -0.4109   -7.4962    0.0000 N   0  0  0  0  0  0  0  0  0  0  0  0
   -1.3240   -6.3062    0.0000 C   0  0  0  0  0  0  0  0  0  0  0  0
   -0.7500   -4.9204    0.0000 C   0  0  0  0  0  0  0  0  0  0  0  0
    0.7500   -4.9204    0.0000 C   0  0  0  0  0  0  0  0  0  0  0  0
    1.8107   -3.8597    0.0000 C   0  0  0  0  0  0  0  0  0  0  0  0
    1.8107   -2.3597    0.0000 C   0  0  0  0  0  0  0  0  0  0  0  0
    3.1965   -1.7857    0.0000 C   0  0  0  0  0  0  0  0  0  0  0  0
    3.3923   -0.2985    0.0000 O   0  0  0  0  0  0  0  0  0  0  0  0
    4.3865   -2.6988    0.0000 N   0  0  0  0  0  0  0  0  0  0  0  0
    5.7723   -2.1248    0.0000 C   0  0  0  0  0  0  0  0  0  0  0  0
    6.1225   -0.6662    0.0000 N   0  0  0  0  0  0  0  0  0  0  0  0
    7.6179   -0.5485    0.0000 N   0  0  0  0  0  0  0  0  0  0  0  0
    8.1919   -1.9344    0.0000 N   0  0  0  0  0  0  0  0  0  0  0  0
    7.0513   -2.9085    0.0000 N   0  0  0  0  0  0  0  0  0  0  0  0
    7.1690   -4.4039    0.0000 N   0  0  0  0  0  0  0  0  0  0  0  0
    8.4479   -5.1877    0.0000 C   0  0  0  0  0  0  0  0  0  0  0  0
    8.0978   -6.6462    0.0000 C   0  0  0  0  0  0  0  0  0  0  0  0
    6.6024   -6.7639    0.0000 N   0  0  0  0  0  0  0  0  0  0  0  0
    5.8186   -8.0429    0.0000 C   0  0  0  0  0  0  0  0  0  0  0  0
    6.5344   -9.3611    0.0000 O   0  0  0  0  0  0  0  0  0  0  0  0
    4.3192   -8.0036    0.0000 N   0  0  0  0  0  0  0  0  0  0  0  0
    3.5354   -9.2826    0.0000 C   0  0  0  0  0  0  0  0  0  0  0  0
    2.0359   -9.2433    0.0000 N   0  0  0  0  0  0  0  0  0  0  0  0
    1.2522  -10.5223    0.0000 N   0  0  0  0  0  0  0  0  0  0  0  0
    1.9679  -11.8405    0.0000 N   0  0  0  0  0  0  0  0  0  0  0  0
    3.4674  -11.8797    0.0000 N   0  0  0  0  0  0  0  0  0  0  0  0
    4.2512  -10.6008    0.0000 N   0  0  0  0  0  0  0  0  0  0  0  0
    6.0284   -5.3781    0.0000 C   0  0  0  0  0  0  0  0  0  0  0  0
    4.5698   -5.0279    0.0000 O   0  0  0  0  0  0  0  0  0  0  0  0
    0.7500   -1.2990    0.0000 C   0  0  0  0  0  0  0  0  0  0  0  0
    1.5000    0.0000    0.0000 C   0  0  0  0  0  0  0  0  0  0  0  0
    0.7500    1.2990    0.0000 C   0  0  0  0  0  0  0  0  0  0  0  0
   -0.7500    1.2990    0.0000 C   0  0  0  0  0  0  0  0  0  0  0  0
   -1.5000    0.0000    0.0000 C   0  0  0  0  0  0  0  0  0  0  0  0
   -0.7500   -1.2990    0.0000 C   0  0  0  0  0  0  0  0  0  0  0  0
   -1.8107   -2.3597    0.0000 C   0  0  0  0  0  0  0  0  0  0  0  0
   -3.1097   -1.6097    0.0000 C   0  0  0  0  0  0  0  0  0  0  0  0
   -4.4087   -2.3597    0.0000 C   0  0  0  0  0  0  0  0  0  0  0  0
   -4.4087   -3.8597    0.0000 C   0  0  0  0  0  0  0  0  0  0  0  0
   -3.1097   -4.6097    0.0000 C   0  0  0  0  0  0  0  0  0  0  0  0
   -1.8107   -3.8597    0.0000 C   0  0  0  0  0  0  0  0  0  0  0  0
  1  2  1  0
  2  3  2  3
  3  4  1  0
  4  5  1  0
  5  6  1  0
  6  7  2  0
  7  8  1  0
  8  9  2  0
  9 10  1  0
 10 11  2  0
 10 12  1  0
 12 13  1  0
 13 14  2  0
 14 15  1  0
 15 16  2  0
 16 17  1  0
 17 18  1  0
 18 19  1  0
 19 20  1  0
 20 21  1  0
 21 22  1  0
 22 23  2  0
 22 24  1  0
 24 25  1  0
 25 26  2  0
 26 27  1  0
 27 28  2  0
 28 29  1  0
 29 30  2  0
 21 31  1  0
 31 32  2  0
  9 33  1  0
 33 34  2  0
 34 35  1  0
 35 36  2  0
 36 37  1  0
 37 38  2  0
 38 39  1  0
 39 40  2  0
 40 41  1  0
 41 42  2  0
 42 43  1  0
 43 44  2  0
 44  6  1  0
 17 13  1  0
 31 18  1  0
 38 33  1  0
 44 39  1  0
 30 25  1  0
M  END
>  <Title>  (85) 
idAABIgen14

$$$$

     RDKit          2D

 11 11  0  0  0  0  0  0  0  0999 V2000
    6.0000   -2.5981    0.0000 C   0  0  0  0  0  0  0  0  0  0  0  0
    5.2500   -1.2990    0.0000 C   0  0  0  0  0  0  0  0  0  0  0  0
    6.0000    0.0000    0.0000 C   0  0  0  0  0  0  0  0  0  0  0  0
    3.7500   -1.2990    0.0000 C   0  0  0  0  0  0  0  0  0  0  0  0
    3.0000    0.0000    0.0000 N   0  0  0  0  0  0  0  0  0  0  0  0
    1.5000    0.0000    0.0000 C   0  0  0  0  0  0  0  0  0  0  0  0
    0.7500   -1.2990    0.0000 C   0  0  0  0  0  0  0  0  0  0  0  0
   -0.7500   -1.2990    0.0000 C   0  0  0  0  0  0  0  0  0  0  0  0
   -1.5000    0.0000    0.0000 C   0  0  0  0  0  0  0  0  0  0  0  0
   -0.7500    1.2990    0.0000 N   0  0  0  0  0  0  0  0  0  0  0  0
    0.7500    1.2990    0.0000 C   0  0  0  0  0  0  0  0  0  0  0  0
  1  2  1  0
  2  3  1  0
  2  4  1  0
  4  5  1  0
  5  6  1  0
  6  7  2  0
  7  8  1  0
  8  9  2  0
  9 10  1  0
 10 11  2  0
 11  6  1  0
M  END
>  <Title>  (86) 
idAABJgen14

$$$$

     RDKit          2D

 36 40  0  0  0  0  0  0  0  0999 V2000
   -3.1476   -2.1380    0.0000 C   0  0  0  0  0  0  0  0  0  0  0  0
   -1.6852   -2.4718    0.0000 C   0  0  0  0  0  0  0  0  0  0  0  0
   -1.3515   -3.9342    0.0000 C   0  0  0  0  0  0  0  0  0  0  0  0
   -0.0000   -4.5850    0.0000 C   0  0  0  0  0  0  0  0  0  0  0  0
    1.3515   -3.9342    0.0000 C   0  0  0  0  0  0  0  0  0  0  0  0
    1.6852   -2.4718    0.0000 C   0  0  0  0  0  0  0  0  0  0  0  0
    3.1476   -2.1380    0.0000 C   0  0  0  0  0  0  0  0  0  0  0  0
    3.5898   -0.7046    0.0000 O   0  0  0  0  0  0  0  0  0  0  0  0
    4.1679   -3.2376    0.0000 N   0  0  0  0  0  0  0  0  0  0  0  0
    5.6303   -2.9038    0.0000 C   0  0  0  0  0  0  0  0  0  0  0  0
    6.2198   -1.5245    0.0000 N   0  0  0  0  0  0  0  0  0  0  0  0
    7.7138   -1.6590    0.0000 N   0  0  0  0  0  0  0  0  0  0  0  0
    8.0476   -3.1214    0.0000 N   0  0  0  0  0  0  0  0  0  0  0  0
    6.7599   -3.8907    0.0000 N   0  0  0  0  0  0  0  0  0  0  0  0
    6.6254   -5.3847    0.0000 C   0  0  0  0  0  0  0  0  0  0  0  0
    7.7550   -6.3716    0.0000 C   0  0  0  0  0  0  0  0  0  0  0  0
    7.1655   -7.7509    0.0000 C   0  0  0  0  0  0  0  0  0  0  0  0
    5.6715   -7.6164    0.0000 C   0  0  0  0  0  0  0  0  0  0  0  0
    4.6846   -8.7460    0.0000 O   0  0  0  0  0  0  0  0  0  0  0  0
    3.2129   -8.4561    0.0000 C   0  0  0  0  0  0  0  0  0  0  0  0
    2.7281   -7.0366    0.0000 O   0  0  0  0  0  0  0  0  0  0  0  0
    2.2260   -9.5857    0.0000 N   0  0  0  0  0  0  0  0  0  0  0  0
    0.7543   -9.2959    0.0000 C   0  0  0  0  0  0  0  0  0  0  0  0
    0.2695   -7.8764    0.0000 N   0  0  0  0  0  0  0  0  0  0  0  0
   -1.2023   -7.5865    0.0000 N   0  0  0  0  0  0  0  0  0  0  0  0
   -2.1892   -8.7161    0.0000 N   0  0  0  0  0  0  0  0  0  0  0  0
   -1.7044  -10.1356    0.0000 N   0  0  0  0  0  0  0  0  0  0  0  0
   -0.2326  -10.4255    0.0000 N   0  0  0  0  0  0  0  0  0  0  0  0
    5.3378   -6.1540    0.0000 C   0  0  0  0  0  0  0  0  0  0  0  0
    3.9585   -5.5645    0.0000 O   0  0  0  0  0  0  0  0  0  0  0  0
    0.7500   -1.2990    0.0000 C   0  0  0  0  0  0  0  0  0  0  0  0
    1.5000    0.0000    0.0000 C   0  0  0  0  0  0  0  0  0  0  0  0
    0.7500    1.2990    0.0000 C   0  0  0  0  0  0  0  0  0  0  0  0
   -0.7500    1.2990    0.0000 C   0  0  0  0  0  0  0  0  0  0  0  0
   -1.5000    0.0000    0.0000 C   0  0  0  0  0  0  0  0  0  0  0  0
   -0.7500   -1.2990    0.0000 C   0  0  0  0  0  0  0  0  0  0  0  0
  1  2  1  0
  2  3  1  0
  3  4  1  0
  4  5  1  0
  5  6  2  0
  6  7  1  0
  7  8  2  0
  7  9  1  0
  9 10  1  0
 10 11  2  0
 11 12  1  0
 12 13  2  0
 13 14  1  0
 14 15  1  0
 15 16  2  0
 16 17  1  0
 17 18  2  0
 18 19  1  0
 19 20  1  0
 20 21  2  0
 20 22  1  0
 22 23  1  0
 23 24  2  0
 24 25  1  0
 25 26  2  0
 26 27  1  0
 27 28  2  0
 18 29  1  0
 29 30  2  0
  6 31  1  0
 31 32  2  0
 32 33  1  0
 33 34  2  0
 34 35  1  0
 35 36  2  0
 36  2  1  0
 14 10  1  0
 29 15  1  0
 36 31  1  0
 28 23  1  0
M  END
>  <Title>  (87) 
idAABKgen14

$$$$

     RDKit          2D

  6  5  0  0  0  0  0  0  0  0999 V2000
    0.0000    0.0000    0.0000 C   0  0  0  0  0  0  0  0  0  0  0  0
    1.2990    0.7500    0.0000 C   0  0  0  0  0  0  0  0  0  0  0  0
    2.5981   -0.0000    0.0000 C   0  0  0  0  0  0  0  0  0  0  0  0
    2.5981   -1.5000    0.0000 N   0  0  0  0  0  0  0  0  0  0  0  0
    3.8971    0.7500    0.0000 C   0  0  0  0  0  0  0  0  0  0  0  0
    5.1962   -0.0000    0.0000 N   0  0  0  0  0  0  0  0  0  0  0  0
  1  2  1  0
  2  3  1  0
  3  4  1  0
  3  5  1  0
  5  6  1  0
M  END
>  <Title>  (88) 
idAABLgen14

$$$$

     RDKit          2D

  9  9  0  0  0  0  0  0  0  0999 V2000
    6.0000    0.0000    0.0000 C   0  0  0  0  0  0  0  0  0  0  0  0
    4.5000    0.0000    0.0000 C   0  0  0  0  0  0  0  0  0  0  0  0
    3.0000    0.0000    0.0000 C   0  0  0  0  0  0  0  0  0  0  0  0
    1.5000    0.0000    0.0000 C   0  0  0  0  0  0  0  0  0  0  0  0
    0.7500   -1.2990    0.0000 C   0  0  0  0  0  0  0  0  0  0  0  0
   -0.7500   -1.2990    0.0000 N   0  0  0  0  0  0  0  0  0  0  0  0
   -1.5000    0.0000    0.0000 C   0  0  0  0  0  0  0  0  0  0  0  0
   -0.7500    1.2990    0.0000 C   0  0  0  0  0  0  0  0  0  0  0  0
    0.7500    1.2990    0.0000 N   0  0  0  0  0  0  0  0  0  0  0  0
  1  2  1  0
  2  3  3  0
  3  4  1  0
  4  5  2  0
  5  6  1  0
  6  7  2  0
  7  8  1  0
  8  9  2  0
  9  4  1  0
M  END
>  <Title>  (89) 
idAABMgen14

$$$$

     RDKit          2D

 35 39  0  0  0  0  0  0  0  0999 V2000
   -3.7500   -3.8971    0.0000 C   0  0  0  0  0  0  0  0  0  0  0  0
   -3.0000   -2.5981    0.0000 C   0  0  0  0  0  0  0  0  0  0  0  0
   -1.5000   -2.5981    0.0000 C   0  0  0  0  0  0  0  0  0  0  0  0
   -0.7500   -3.8971    0.0000 C   0  0  0  0  0  0  0  0  0  0  0  0
    0.7500   -3.8971    0.0000 C   0  0  0  0  0  0  0  0  0  0  0  0
    1.5000   -2.5981    0.0000 C   0  0  0  0  0  0  0  0  0  0  0  0
    3.0000   -2.5981    0.0000 C   0  0  0  0  0  0  0  0  0  0  0  0
    3.7500   -1.2990    0.0000 O   0  0  0  0  0  0  0  0  0  0  0  0
    3.7500   -3.8971    0.0000 N   0  0  0  0  0  0  0  0  0  0  0  0
    5.2500   -3.8971    0.0000 C   0  0  0  0  0  0  0  0  0  0  0  0
    6.1317   -2.6836    0.0000 N   0  0  0  0  0  0  0  0  0  0  0  0
    7.5583   -3.1471    0.0000 N   0  0  0  0  0  0  0  0  0  0  0  0
    7.5583   -4.6471    0.0000 N   0  0  0  0  0  0  0  0  0  0  0  0
    6.1317   -5.1106    0.0000 N   0  0  0  0  0  0  0  0  0  0  0  0
    5.6682   -6.5372    0.0000 N   0  0  0  0  0  0  0  0  0  0  0  0
    6.5498   -7.7508    0.0000 C   0  0  0  0  0  0  0  0  0  0  0  0
    5.6682   -8.9643    0.0000 C   0  0  0  0  0  0  0  0  0  0  0  0
    4.2416   -8.5008    0.0000 N   0  0  0  0  0  0  0  0  0  0  0  0
    3.0280   -9.3824    0.0000 C   0  0  0  0  0  0  0  0  0  0  0  0
    3.1848  -10.8742    0.0000 O   0  0  0  0  0  0  0  0  0  0  0  0
    1.6577   -8.7723    0.0000 N   0  0  0  0  0  0  0  0  0  0  0  0
    0.4442   -9.6540    0.0000 C   0  0  0  0  0  0  0  0  0  0  0  0
   -0.9261   -9.0439    0.0000 N   0  0  0  0  0  0  0  0  0  0  0  0
   -2.1396   -9.9256    0.0000 N   0  0  0  0  0  0  0  0  0  0  0  0
   -1.9829  -11.4174    0.0000 N   0  0  0  0  0  0  0  0  0  0  0  0
   -0.6125  -12.0275    0.0000 N   0  0  0  0  0  0  0  0  0  0  0  0
    0.6010  -11.1458    0.0000 N   0  0  0  0  0  0  0  0  0  0  0  0
    4.2416   -7.0008    0.0000 C   0  0  0  0  0  0  0  0  0  0  0  0
    3.0280   -6.1191    0.0000 O   0  0  0  0  0  0  0  0  0  0  0  0
    0.7500   -1.2990    0.0000 C   0  0  0  0  0  0  0  0  0  0  0  0
    1.5000    0.0000    0.0000 C   0  0  0  0  0  0  0  0  0  0  0  0
    0.7500    1.2990    0.0000 C   0  0  0  0  0  0  0  0  0  0  0  0
   -0.7500    1.2990    0.0000 C   0  0  0  0  0  0  0  0  0  0  0  0
   -1.5000    0.0000    0.0000 C   0  0  0  0  0  0  0  0  0  0  0  0
   -0.7500   -1.2990    0.0000 C   0  0  0  0  0  0  0  0  0  0  0  0
  1  2  2  0
  2  3  1  0
  3  4  1  0
  4  5  2  0
  5  6  1  0
  6  7  1  0
  7  8  2  0
  7  9  1  0
  9 10  1  0
 10 11  2  0
 11 12  1  0
 12 13  2  0
 13 14  1  0
 14 15  1  0
 15 16  1  0
 16 17  1  0
 17 18  1  0
 18 19  1  0
 19 20  2  0
 19 21  1  0
 21 22  1  0
 22 23  2  0
 23 24  1  0
 24 25  2  0
 25 26  1  0
 26 27  2  0
 18 28  1  0
 28 29  2  0
  6 30  1  0
 30 31  2  0
 31 32  1  0
 32 33  2  0
 33 34  1  0
 34 35  2  0
 35  3  1  0
 14 10  1  0
 28 15  1  0
 35 30  1  0
 27 22  1  0
M  END
>  <Title>  (90) 
idAABNgen14

$$$$

     RDKit          2D

 35 39  0  0  0  0  0  0  0  0999 V2000
   -4.5000   -2.5981    0.0000 N   0  0  0  0  0  0  0  0  0  0  0  0
   -3.0000   -2.5981    0.0000 C   0  0  0  0  0  0  0  0  0  0  0  0
   -1.5000   -2.5981    0.0000 C   0  0  0  0  0  0  0  0  0  0  0  0
   -0.7500   -3.8971    0.0000 C   0  0  0  0  0  0  0  0  0  0  0  0
    0.7500   -3.8971    0.0000 C   0  0  0  0  0  0  0  0  0  0  0  0
    1.5000   -2.5981    0.0000 C   0  0  0  0  0  0  0  0  0  0  0  0
    3.0000   -2.5981    0.0000 C   0  0  0  0  0  0  0  0  0  0  0  0
    3.7500   -1.2990    0.0000 O   0  0  0  0  0  0  0  0  0  0  0  0
    3.7500   -3.8971    0.0000 N   0  0  0  0  0  0  0  0  0  0  0  0
    5.2500   -3.8971    0.0000 C   0  0  0  0  0  0  0  0  0  0  0  0
    6.1317   -2.6836    0.0000 N   0  0  0  0  0  0  0  0  0  0  0  0
    7.5583   -3.1471    0.0000 N   0  0  0  0  0  0  0  0  0  0  0  0
    7.5583   -4.6471    0.0000 N   0  0  0  0  0  0  0  0  0  0  0  0
    6.1317   -5.1106    0.0000 N   0  0  0  0  0  0  0  0  0  0  0  0
    5.6682   -6.5372    0.0000 N   0  0  0  0  0  0  0  0  0  0  0  0
    6.5498   -7.7508    0.0000 C   0  0  0  0  0  0  0  0  0  0  0  0
    5.6682   -8.9643    0.0000 C   0  0  0  0  0  0  0  0  0  0  0  0
    4.2416   -8.5008    0.0000 N   0  0  0  0  0  0  0  0  0  0  0  0
    3.0280   -9.3824    0.0000 C   0  0  0  0  0  0  0  0  0  0  0  0
    3.1848  -10.8742    0.0000 O   0  0  0  0  0  0  0  0  0  0  0  0
    1.6577   -8.7723    0.0000 N   0  0  0  0  0  0  0  0  0  0  0  0
    0.4442   -9.6540    0.0000 C   0  0  0  0  0  0  0  0  0  0  0  0
   -0.9261   -9.0439    0.0000 N   0  0  0  0  0  0  0  0  0  0  0  0
   -2.1396   -9.9256    0.0000 N   0  0  0  0  0  0  0  0  0  0  0  0
   -1.9829  -11.4174    0.0000 N   0  0  0  0  0  0  0  0  0  0  0  0
   -0.6125  -12.0275    0.0000 N   0  0  0  0  0  0  0  0  0  0  0  0
    0.6010  -11.1458    0.0000 N   0  0  0  0  0  0  0  0  0  0  0  0
    4.2416   -7.0008    0.0000 C   0  0  0  0  0  0  0  0  0  0  0  0
    3.0280   -6.1191    0.0000 O   0  0  0  0  0  0  0  0  0  0  0  0
    0.7500   -1.2990    0.0000 C   0  0  0  0  0  0  0  0  0  0  0  0
    1.5000    0.0000    0.0000 C   0  0  0  0  0  0  0  0  0  0  0  0
    0.7500    1.2990    0.0000 C   0  0  0  0  0  0  0  0  0  0  0  0
   -0.7500    1.2990    0.0000 C   0  0  0  0  0  0  0  0  0  0  0  0
   -1.5000    0.0000    0.0000 C   0  0  0  0  0  0  0  0  0  0  0  0
   -0.7500   -1.2990    0.0000 C   0  0  0  0  0  0  0  0  0  0  0  0
  1  2  3  0
  2  3  1  0
  3  4  2  0
  4  5  1  0
  5  6  2  0
  6  7  1  0
  7  8  2  0
  7  9  1  0
  9 10  1  0
 10 11  2  0
 11 12  1  0
 12 13  2  0
 13 14  1  0
 14 15  1  0
 15 16  1  0
 16 17  1  0
 17 18  1  0
 18 19  1  0
 19 20  2  0
 19 21  1  0
 21 22  1  0
 22 23  2  0
 23 24  1  0
 24 25  2  0
 25 26  1  0
 26 27  2  0
 18 28  1  0
 28 29  2  0
  6 30  1  0
 30 31  2  0
 31 32  1  0
 32 33  2  0
 33 34  1  0
 34 35  2  0
 35  3  1  0
 14 10  1  0
 28 15  1  0
 35 30  1  0
 27 22  1  0
M  END
>  <Title>  (91) 
idAABOgen14

$$$$

     RDKit          2D

 28 32  0  0  0  0  0  0  0  0999 V2000
    3.7860   -5.5823    0.0000 C   0  0  0  0  0  0  0  0  0  0  0  0
    2.4215   -4.9592    0.0000 C   0  0  0  0  0  0  0  0  0  0  0  0
    2.6350   -3.4744    0.0000 C   0  0  0  0  0  0  0  0  0  0  0  0
    2.0119   -2.1100    0.0000 C   0  0  0  0  0  0  0  0  0  0  0  0
    0.7500   -1.2990    0.0000 C   0  0  0  0  0  0  0  0  0  0  0  0
    1.5000    0.0000    0.0000 C   0  0  0  0  0  0  0  0  0  0  0  0
    0.7500    1.2990    0.0000 C   0  0  0  0  0  0  0  0  0  0  0  0
   -0.7500    1.2990    0.0000 C   0  0  0  0  0  0  0  0  0  0  0  0
   -1.5000    0.0000    0.0000 C   0  0  0  0  0  0  0  0  0  0  0  0
   -0.7500   -1.2990    0.0000 C   0  0  0  0  0  0  0  0  0  0  0  0
   -2.0119   -2.1100    0.0000 C   0  0  0  0  0  0  0  0  0  0  0  0
   -2.8820   -0.8881    0.0000 C   0  0  0  0  0  0  0  0  0  0  0  0
   -4.3752   -1.0307    0.0000 C   0  0  0  0  0  0  0  0  0  0  0  0
   -4.9983   -2.3952    0.0000 C   0  0  0  0  0  0  0  0  0  0  0  0
   -4.1282   -3.6170    0.0000 C   0  0  0  0  0  0  0  0  0  0  0  0
   -2.6350   -3.4744    0.0000 C   0  0  0  0  0  0  0  0  0  0  0  0
   -2.4215   -4.9592    0.0000 C   0  0  0  0  0  0  0  0  0  0  0  0
   -3.8944   -5.2431    0.0000 C   0  0  0  0  0  0  0  0  0  0  0  0
   -4.3850   -6.6606    0.0000 C   0  0  0  0  0  0  0  0  0  0  0  0
   -3.4027   -7.7942    0.0000 C   0  0  0  0  0  0  0  0  0  0  0  0
   -1.9298   -7.5103    0.0000 C   0  0  0  0  0  0  0  0  0  0  0  0
   -1.4392   -6.0928    0.0000 C   0  0  0  0  0  0  0  0  0  0  0  0
   -0.0000   -6.5154    0.0000 C   0  0  0  0  0  0  0  0  0  0  0  0
   -0.3536   -7.9731    0.0000 C   0  0  0  0  0  0  0  0  0  0  0  0
    0.7320   -9.0082    0.0000 C   0  0  0  0  0  0  0  0  0  0  0  0
    2.1712   -8.5856    0.0000 C   0  0  0  0  0  0  0  0  0  0  0  0
    2.5248   -7.1279    0.0000 C   0  0  0  0  0  0  0  0  0  0  0  0
    1.4392   -6.0928    0.0000 C   0  0  0  0  0  0  0  0  0  0  0  0
  1  2  1  0
  2  3  1  0
  3  4  1  0
  4  5  1  0
  5  6  2  0
  6  7  1  0
  7  8  2  0
  8  9  1  0
  9 10  2  0
 10 11  1  0
 11 12  2  0
 12 13  1  0
 13 14  2  0
 14 15  1  0
 15 16  2  0
 16 17  1  0
 17 18  2  0
 18 19  1  0
 19 20  2  0
 20 21  1  0
 21 22  2  0
 22 23  1  0
 23 24  2  0
 24 25  1  0
 25 26  2  0
 26 27  1  0
 27 28  2  0
 28  2  1  0
 10  5  1  0
 16 11  1  0
 22 17  1  0
 28 23  1  0
M  END
>  <Title>  (92) 
idAABPgen14

$$$$

     RDKit          2D

 46 50  0  0  0  0  0  0  0  0999 V2000
  -10.1256    1.0845    0.0000 C   0  0  0  0  0  0  0  0  0  0  0  0
   -9.9298   -0.4027    0.0000 C   0  0  0  0  0  0  0  0  0  0  0  0
   -8.5440   -0.9767    0.0000 C   0  0  0  0  0  0  0  0  0  0  0  0
   -8.3482   -2.4639    0.0000 C   0  0  0  0  0  0  0  0  0  0  0  0
   -9.5382   -3.3770    0.0000 C   0  0  0  0  0  0  0  0  0  0  0  0
   -6.9624   -3.0379    0.0000 N   0  0  0  0  0  0  0  0  0  0  0  0
   -5.7723   -2.1248    0.0000 C   0  0  0  0  0  0  0  0  0  0  0  0
   -5.9681   -0.6376    0.0000 O   0  0  0  0  0  0  0  0  0  0  0  0
   -4.3865   -2.6988    0.0000 C   0  0  0  0  0  0  0  0  0  0  0  0
   -3.1965   -1.7857    0.0000 C   0  0  0  0  0  0  0  0  0  0  0  0
   -1.8107   -2.3597    0.0000 C   0  0  0  0  0  0  0  0  0  0  0  0
   -1.8107   -3.8597    0.0000 C   0  0  0  0  0  0  0  0  0  0  0  0
   -0.7500   -4.9204    0.0000 C   0  0  0  0  0  0  0  0  0  0  0  0
    0.7500   -4.9204    0.0000 C   0  0  0  0  0  0  0  0  0  0  0  0
    1.3240   -6.3062    0.0000 C   0  0  0  0  0  0  0  0  0  0  0  0
    2.8112   -6.5020    0.0000 O   0  0  0  0  0  0  0  0  0  0  0  0
    0.4109   -7.4962    0.0000 N   0  0  0  0  0  0  0  0  0  0  0  0
    0.9849   -8.8820    0.0000 C   0  0  0  0  0  0  0  0  0  0  0  0
    2.4435   -9.2322    0.0000 N   0  0  0  0  0  0  0  0  0  0  0  0
    2.5612  -10.7276    0.0000 N   0  0  0  0  0  0  0  0  0  0  0  0
    1.1753  -11.3016    0.0000 N   0  0  0  0  0  0  0  0  0  0  0  0
    0.2012  -10.1610    0.0000 N   0  0  0  0  0  0  0  0  0  0  0  0
   -1.2942  -10.2787    0.0000 N   0  0  0  0  0  0  0  0  0  0  0  0
   -2.0780  -11.5576    0.0000 C   0  0  0  0  0  0  0  0  0  0  0  0
   -3.5365  -11.2075    0.0000 C   0  0  0  0  0  0  0  0  0  0  0  0
   -3.6542   -9.7121    0.0000 N   0  0  0  0  0  0  0  0  0  0  0  0
   -4.9332   -8.9283    0.0000 C   0  0  0  0  0  0  0  0  0  0  0  0
   -6.2514   -9.6441    0.0000 O   0  0  0  0  0  0  0  0  0  0  0  0
   -4.8939   -7.4289    0.0000 N   0  0  0  0  0  0  0  0  0  0  0  0
   -6.1729   -6.6451    0.0000 C   0  0  0  0  0  0  0  0  0  0  0  0
   -6.1336   -5.1456    0.0000 N   0  0  0  0  0  0  0  0  0  0  0  0
   -7.4126   -4.3619    0.0000 N   0  0  0  0  0  0  0  0  0  0  0  0
   -8.7308   -5.0776    0.0000 N   0  0  0  0  0  0  0  0  0  0  0  0
   -8.7700   -6.5771    0.0000 N   0  0  0  0  0  0  0  0  0  0  0  0
   -7.4911   -7.3608    0.0000 N   0  0  0  0  0  0  0  0  0  0  0  0
   -2.2684   -9.1381    0.0000 C   0  0  0  0  0  0  0  0  0  0  0  0
   -1.9182   -7.6795    0.0000 O   0  0  0  0  0  0  0  0  0  0  0  0
    1.8107   -3.8597    0.0000 C   0  0  0  0  0  0  0  0  0  0  0  0
    3.1965   -4.4337    0.0000 O   0  0  0  0  0  0  0  0  0  0  0  0
    1.8107   -2.3597    0.0000 O   0  0  0  0  0  0  0  0  0  0  0  0
    0.7500   -1.2990    0.0000 C   0  0  0  0  0  0  0  0  0  0  0  0
    1.5000    0.0000    0.0000 C   0  0  0  0  0  0  0  0  0  0  0  0
    0.7500    1.2990    0.0000 C   0  0  0  0  0  0  0  0  0  0  0  0
   -0.7500    1.2990    0.0000 C   0  0  0  0  0  0  0  0  0  0  0  0
   -1.5000    0.0000    0.0000 C   0  0  0  0  0  0  0  0  0  0  0  0
   -0.7500   -1.2990    0.0000 C   0  0  0  0  0  0  0  0  0  0  0  0
  1  2  1  0
  2  3  1  0
  3  4  1  0
  4  5  1  0
  4  6  1  0
  6  7  1  0
  7  8  2  0
  7  9  1  0
  9 10  1  0
 10 11  1  0
 11 12  2  0
 12 13  1  0
 13 14  2  0
 14 15  1  0
 15 16  2  0
 15 17  1  0
 17 18  1  0
 18 19  2  0
 19 20  1  0
 20 21  2  0
 21 22  1  0
 22 23  1  0
 23 24  1  0
 24 25  1  0
 25 26  1  0
 26 27  1  0
 27 28  2  0
 27 29  1  0
 29 30  1  0
 30 31  2  0
 31 32  1  0
 32 33  2  0
 33 34  1  0
 34 35  2  0
 26 36  1  0
 36 37  2  0
 14 38  1  0
 38 39  2  0
 38 40  1  0
 40 41  1  0
 41 42  2  0
 42 43  1  0
 43 44  2  0
 44 45  1  0
 45 46  2  0
 46 11  1  0
 22 18  1  0
 36 23  1  0
 46 41  1  0
 35 30  1  0
M  END
>  <Title>  (93) 
idAABQgen14

$$$$

     RDKit          2D

 44 49  0  0  0  0  0  0  0  0999 V2000
   -3.7860   -5.5823    0.0000 C   0  0  0  0  0  0  0  0  0  0  0  0
   -2.4215   -4.9592    0.0000 C   0  0  0  0  0  0  0  0  0  0  0  0
   -1.4392   -6.0928    0.0000 C   0  0  0  0  0  0  0  0  0  0  0  0
   -0.0000   -6.5154    0.0000 C   0  0  0  0  0  0  0  0  0  0  0  0
    1.4392   -6.0928    0.0000 C   0  0  0  0  0  0  0  0  0  0  0  0
    2.4215   -4.9592    0.0000 C   0  0  0  0  0  0  0  0  0  0  0  0
    2.6350   -3.4744    0.0000 C   0  0  0  0  0  0  0  0  0  0  0  0
    2.0119   -2.1100    0.0000 C   0  0  0  0  0  0  0  0  0  0  0  0
    3.1455   -1.1277    0.0000 C   0  0  0  0  0  0  0  0  0  0  0  0
    2.8616    0.3452    0.0000 O   0  0  0  0  0  0  0  0  0  0  0  0
    4.5630   -1.6183    0.0000 N   0  0  0  0  0  0  0  0  0  0  0  0
    5.6966   -0.6360    0.0000 C   0  0  0  0  0  0  0  0  0  0  0  0
    5.5683    0.8585    0.0000 N   0  0  0  0  0  0  0  0  0  0  0  0
    6.9500    1.4424    0.0000 N   0  0  0  0  0  0  0  0  0  0  0  0
    7.9322    0.3088    0.0000 N   0  0  0  0  0  0  0  0  0  0  0  0
    7.1576   -0.9758    0.0000 N   0  0  0  0  0  0  0  0  0  0  0  0
    7.7416   -2.3574    0.0000 N   0  0  0  0  0  0  0  0  0  0  0  0
    9.2026   -2.6972    0.0000 C   0  0  0  0  0  0  0  0  0  0  0  0
    9.3309   -4.1917    0.0000 C   0  0  0  0  0  0  0  0  0  0  0  0
    7.9492   -4.7756    0.0000 C   0  0  0  0  0  0  0  0  0  0  0  0
    7.6095   -6.2366    0.0000 O   0  0  0  0  0  0  0  0  0  0  0  0
    6.1744   -6.6729    0.0000 C   0  0  0  0  0  0  0  0  0  0  0  0
    5.0789   -5.6482    0.0000 O   0  0  0  0  0  0  0  0  0  0  0  0
    5.8346   -8.1339    0.0000 N   0  0  0  0  0  0  0  0  0  0  0  0
    4.3995   -8.5702    0.0000 C   0  0  0  0  0  0  0  0  0  0  0  0
    3.3040   -7.5455    0.0000 N   0  0  0  0  0  0  0  0  0  0  0  0
    1.8689   -7.9817    0.0000 N   0  0  0  0  0  0  0  0  0  0  0  0
    1.5292   -9.4428    0.0000 N   0  0  0  0  0  0  0  0  0  0  0  0
    2.6246  -10.4675    0.0000 N   0  0  0  0  0  0  0  0  0  0  0  0
    4.0597  -10.0312    0.0000 N   0  0  0  0  0  0  0  0  0  0  0  0
    6.9670   -3.6420    0.0000 C   0  0  0  0  0  0  0  0  0  0  0  0
    5.4725   -3.7703    0.0000 O   0  0  0  0  0  0  0  0  0  0  0  0
    0.7500   -1.2990    0.0000 C   0  0  0  0  0  0  0  0  0  0  0  0
    1.5000    0.0000    0.0000 C   0  0  0  0  0  0  0  0  0  0  0  0
    0.7500    1.2990    0.0000 C   0  0  0  0  0  0  0  0  0  0  0  0
   -0.7500    1.2990    0.0000 C   0  0  0  0  0  0  0  0  0  0  0  0
   -1.5000    0.0000    0.0000 C   0  0  0  0  0  0  0  0  0  0  0  0
   -0.7500   -1.2990    0.0000 C   0  0  0  0  0  0  0  0  0  0  0  0
   -2.0119   -2.1100    0.0000 C   0  0  0  0  0  0  0  0  0  0  0  0
   -2.8820   -0.8881    0.0000 C   0  0  0  0  0  0  0  0  0  0  0  0
   -4.3752   -1.0307    0.0000 C   0  0  0  0  0  0  0  0  0  0  0  0
   -4.9983   -2.3952    0.0000 C   0  0  0  0  0  0  0  0  0  0  0  0
   -4.1282   -3.6170    0.0000 C   0  0  0  0  0  0  0  0  0  0  0  0
   -2.6350   -3.4744    0.0000 C   0  0  0  0  0  0  0  0  0  0  0  0
  1  2  1  0
  2  3  1  0
  3  4  1  0
  4  5  1  0
  5  6  1  0
  6  7  1  0
  7  8  1  0
  8  9  1  0
  9 10  2  0
  9 11  1  0
 11 12  1  0
 12 13  2  0
 13 14  1  0
 14 15  2  0
 15 16  1  0
 16 17  1  0
 17 18  1  0
 18 19  1  0
 19 20  2  0
 20 21  1  0
 21 22  1  0
 22 23  2  0
 22 24  1  0
 24 25  1  0
 25 26  2  0
 26 27  1  0
 27 28  2  0
 28 29  1  0
 29 30  2  0
 20 31  1  0
 31 32  2  0
  8 33  1  0
 33 34  2  0
 34 35  1  0
 35 36  2  0
 36 37  1  0
 37 38  2  0
 38 39  1  0
 39 40  2  0
 40 41  1  0
 41 42  2  0
 42 43  1  0
 43 44  2  0
 44  2  1  0
 16 12  1  0
 31 17  1  0
 38 33  1  0
 44 39  1  0
 30 25  1  0
M  END
>  <Title>  (94) 
idAABRgen14

$$$$

     RDKit          2D

 33 37  0  0  0  0  0  0  0  0999 V2000
    0.7500   -4.2990    0.0000 C   0  0  0  0  0  0  0  0  0  0  0  0
    0.7500   -2.7990    0.0000 C   0  0  0  0  0  0  0  0  0  0  0  0
    2.2500   -2.7990    0.0000 C   0  0  0  0  0  0  0  0  0  0  0  0
    0.7500   -1.2990    0.0000 C   0  0  0  0  0  0  0  0  0  0  0  0
    1.5000    0.0000    0.0000 C   0  0  0  0  0  0  0  0  0  0  0  0
    0.7500    1.2990    0.0000 C   0  0  0  0  0  0  0  0  0  0  0  0
   -0.7500    1.2990    0.0000 C   0  0  0  0  0  0  0  0  0  0  0  0
   -1.5000    0.0000    0.0000 C   0  0  0  0  0  0  0  0  0  0  0  0
   -0.7500   -1.2990    0.0000 C   0  0  0  0  0  0  0  0  0  0  0  0
   -0.7500   -2.7990    0.0000 N   0  0  0  0  0  0  0  0  0  0  0  0
   -1.8107   -3.8597    0.0000 C   0  0  0  0  0  0  0  0  0  0  0  0
   -1.4224   -5.3086    0.0000 O   0  0  0  0  0  0  0  0  0  0  0  0
   -3.2595   -3.4715    0.0000 N   0  0  0  0  0  0  0  0  0  0  0  0
   -4.3202   -4.5321    0.0000 C   0  0  0  0  0  0  0  0  0  0  0  0
   -4.0856   -6.0137    0.0000 N   0  0  0  0  0  0  0  0  0  0  0  0
   -5.4221   -6.6946    0.0000 N   0  0  0  0  0  0  0  0  0  0  0  0
   -6.4827   -5.6340    0.0000 N   0  0  0  0  0  0  0  0  0  0  0  0
   -5.8017   -4.2975    0.0000 N   0  0  0  0  0  0  0  0  0  0  0  0
   -6.4827   -2.9610    0.0000 N   0  0  0  0  0  0  0  0  0  0  0  0
   -7.9643   -2.7263    0.0000 C   0  0  0  0  0  0  0  0  0  0  0  0
   -8.1989   -1.2448    0.0000 C   0  0  0  0  0  0  0  0  0  0  0  0
   -6.8624   -0.5638    0.0000 N   0  0  0  0  0  0  0  0  0  0  0  0
   -6.6278    0.9177    0.0000 C   0  0  0  0  0  0  0  0  0  0  0  0
   -7.7935    1.8617    0.0000 O   0  0  0  0  0  0  0  0  0  0  0  0
   -5.2274    1.4553    0.0000 N   0  0  0  0  0  0  0  0  0  0  0  0
   -4.9927    2.9368    0.0000 C   0  0  0  0  0  0  0  0  0  0  0  0
   -3.5924    3.4744    0.0000 N   0  0  0  0  0  0  0  0  0  0  0  0
   -3.3577    4.9559    0.0000 N   0  0  0  0  0  0  0  0  0  0  0  0
   -4.5234    5.8999    0.0000 N   0  0  0  0  0  0  0  0  0  0  0  0
   -5.9238    5.3623    0.0000 N   0  0  0  0  0  0  0  0  0  0  0  0
   -6.1584    3.8808    0.0000 N   0  0  0  0  0  0  0  0  0  0  0  0
   -5.8017   -1.6245    0.0000 C   0  0  0  0  0  0  0  0  0  0  0  0
   -4.3202   -1.3898    0.0000 O   0  0  0  0  0  0  0  0  0  0  0  0
  1  2  1  0
  2  3  1  0
  2  4  1  0
  4  5  2  0
  5  6  1  0
  6  7  2  0
  7  8  1  0
  8  9  2  0
  9 10  1  0
 10 11  1  0
 11 12  2  0
 11 13  1  0
 13 14  1  0
 14 15  2  0
 15 16  1  0
 16 17  2  0
 17 18  1  0
 18 19  1  0
 19 20  1  0
 20 21  1  0
 21 22  1  0
 22 23  1  0
 23 24  2  0
 23 25  1  0
 25 26  1  0
 26 27  2  0
 27 28  1  0
 28 29  2  0
 29 30  1  0
 30 31  2  0
 22 32  1  0
 32 33  2  0
 10  2  1  0
 18 14  1  0
 32 19  1  0
  9  4  1  0
 31 26  1  0
M  END
>  <Title>  (95) 
idAABSgen14

$$$$

     RDKit          2D

 40 45  0  0  0  0  0  0  0  0999 V2000
   -2.9678    0.5290    0.0000 C   0  0  0  0  0  0  0  0  0  0  0  0
   -3.7372   -0.7587    0.0000 C   0  0  0  0  0  0  0  0  0  0  0  0
   -5.2311   -0.8932    0.0000 N   0  0  0  0  0  0  0  0  0  0  0  0
   -5.5649   -2.3556    0.0000 N   0  0  0  0  0  0  0  0  0  0  0  0
   -4.2772   -3.1249    0.0000 N   0  0  0  0  0  0  0  0  0  0  0  0
   -3.1476   -2.1380    0.0000 N   0  0  0  0  0  0  0  0  0  0  0  0
   -1.6852   -2.4718    0.0000 N   0  0  0  0  0  0  0  0  0  0  0  0
   -1.3515   -3.9342    0.0000 C   0  0  0  0  0  0  0  0  0  0  0  0
   -0.0000   -4.5850    0.0000 C   0  0  0  0  0  0  0  0  0  0  0  0
    1.3515   -3.9342    0.0000 C   0  0  0  0  0  0  0  0  0  0  0  0
    1.6852   -2.4718    0.0000 C   0  0  0  0  0  0  0  0  0  0  0  0
    3.1476   -2.1380    0.0000 C   0  0  0  0  0  0  0  0  0  0  0  0
    3.5898   -0.7046    0.0000 O   0  0  0  0  0  0  0  0  0  0  0  0
    4.1679   -3.2376    0.0000 N   0  0  0  0  0  0  0  0  0  0  0  0
    5.6303   -2.9038    0.0000 C   0  0  0  0  0  0  0  0  0  0  0  0
    6.2198   -1.5245    0.0000 N   0  0  0  0  0  0  0  0  0  0  0  0
    7.7138   -1.6590    0.0000 N   0  0  0  0  0  0  0  0  0  0  0  0
    8.0476   -3.1214    0.0000 N   0  0  0  0  0  0  0  0  0  0  0  0
    6.7599   -3.8907    0.0000 N   0  0  0  0  0  0  0  0  0  0  0  0
    6.6254   -5.3847    0.0000 N   0  0  0  0  0  0  0  0  0  0  0  0
    7.7550   -6.3716    0.0000 C   0  0  0  0  0  0  0  0  0  0  0  0
    7.1655   -7.7509    0.0000 C   0  0  0  0  0  0  0  0  0  0  0  0
    5.6715   -7.6164    0.0000 N   0  0  0  0  0  0  0  0  0  0  0  0
    4.6846   -8.7460    0.0000 C   0  0  0  0  0  0  0  0  0  0  0  0
    5.1694  -10.1655    0.0000 O   0  0  0  0  0  0  0  0  0  0  0  0
    3.2129   -8.4561    0.0000 N   0  0  0  0  0  0  0  0  0  0  0  0
    2.2260   -9.5857    0.0000 C   0  0  0  0  0  0  0  0  0  0  0  0
    0.7543   -9.2959    0.0000 N   0  0  0  0  0  0  0  0  0  0  0  0
   -0.2326  -10.4255    0.0000 N   0  0  0  0  0  0  0  0  0  0  0  0
    0.2522  -11.8450    0.0000 N   0  0  0  0  0  0  0  0  0  0  0  0
    1.7239  -12.1348    0.0000 N   0  0  0  0  0  0  0  0  0  0  0  0
    2.7108  -11.0052    0.0000 N   0  0  0  0  0  0  0  0  0  0  0  0
    5.3378   -6.1540    0.0000 C   0  0  0  0  0  0  0  0  0  0  0  0
    3.9585   -5.5645    0.0000 O   0  0  0  0  0  0  0  0  0  0  0  0
    0.7500   -1.2990    0.0000 C   0  0  0  0  0  0  0  0  0  0  0  0
    1.5000    0.0000    0.0000 C   0  0  0  0  0  0  0  0  0  0  0  0
    0.7500    1.2990    0.0000 C   0  0  0  0  0  0  0  0  0  0  0  0
   -0.7500    1.2990    0.0000 C   0  0  0  0  0  0  0  0  0  0  0  0
   -1.5000    0.0000    0.0000 C   0  0  0  0  0  0  0  0  0  0  0  0
   -0.7500   -1.2990    0.0000 C   0  0  0  0  0  0  0  0  0  0  0  0
  1  2  1  0
  2  3  2  0
  3  4  1  0
  4  5  2  0
  5  6  1  0
  6  7  1  0
  7  8  1  0
  8  9  2  0
  9 10  1  0
 10 11  2  0
 11 12  1  0
 12 13  2  0
 12 14  1  0
 14 15  1  0
 15 16  2  0
 16 17  1  0
 17 18  2  0
 18 19  1  0
 19 20  1  0
 20 21  1  0
 21 22  1  0
 22 23  1  0
 23 24  1  0
 24 25  2  0
 24 26  1  0
 26 27  1  0
 27 28  2  0
 28 29  1  0
 29 30  2  0
 30 31  1  0
 31 32  2  0
 23 33  1  0
 33 34  2  0
 11 35  1  0
 35 36  2  0
 36 37  1  0
 37 38  2  0
 38 39  1  0
 39 40  2  0
  6  2  1  0
 40  7  1  0
 19 15  1  0
 33 20  1  0
 40 35  1  0
 32 27  1  0
M  END
>  <Title>  (96) 
idAABTgen14

$$$$

     RDKit          2D

  7  6  0  0  0  0  0  0  0  0999 V2000
    0.0000    0.0000    0.0000 C   0  0  0  0  0  0  0  0  0  0  0  0
   -0.0000   -1.5000    0.0000 C   0  0  0  0  0  0  0  0  0  0  0  0
   -0.0000   -3.0000    0.0000 C   0  0  0  0  0  0  0  0  0  0  0  0
   -0.0000   -4.5000    0.0000 C   0  0  0  0  0  0  0  0  0  0  0  0
   -0.0000   -6.0000    0.0000 C   0  0  0  0  0  0  0  0  0  0  0  0
    1.2990   -6.7500    0.0000 C   0  0  0  0  0  0  0  0  0  0  0  0
   -1.2990   -6.7500    0.0000 C   0  0  0  0  0  0  0  0  0  0  0  0
  1  2  3  0
  2  3  1  0
  3  4  3  0
  4  5  1  0
  5  6  1  0
  5  7  1  0
M  END
>  <Title>  (97) 
idAABUgen14

$$$$

     RDKit          2D

  8  7  0  0  0  0  0  0  0  0999 V2000
    0.0000    0.0000    0.0000 C   0  0  0  0  0  0  0  0  0  0  0  0
    1.2990    0.7500    0.0000 C   0  0  0  0  0  0  0  0  0  0  0  0
    2.5981   -0.0000    0.0000 C   0  0  0  0  0  0  0  0  0  0  0  0
    3.8971    0.7500    0.0000 C   0  0  0  0  0  0  0  0  0  0  0  0
    5.1962   -0.0000    0.0000 C   0  0  0  0  0  0  0  0  0  0  0  0
    6.4952    0.7500    0.0000 C   0  0  0  0  0  0  0  0  0  0  0  0
    7.7942   -0.0000    0.0000 N   0  0  0  0  0  0  0  0  0  0  0  0
    9.0933    0.7500    0.0000 C   0  0  0  0  0  0  0  0  0  0  0  0
  1  2  1  0
  2  3  2  3
  3  4  1  0
  4  5  1  0
  5  6  1  0
  6  7  1  0
  7  8  1  0
M  END
>  <Title>  (98) 
idAABVgen14

$$$$

     RDKit          2D

112114  0  0  0  0  0  0  0  0999 V2000
   -5.5288   -0.3801    0.0000 C   0  0  0  0  0  0  0  0  0  0  0  0
   -5.2110   -1.8460    0.0000 C   0  0  0  0  0  0  0  0  0  0  0  0
   -6.6666   -2.2084    0.0000 C   0  0  0  0  0  0  0  0  0  0  0  0
   -8.0973   -2.6589    0.0000 C   0  0  0  0  0  0  0  0  0  0  0  0
   -9.4980   -3.1957    0.0000 C   0  0  0  0  0  0  0  0  0  0  0  0
  -10.8633   -3.8169    0.0000 C   0  0  0  0  0  0  0  0  0  0  0  0
  -12.1882   -4.5202    0.0000 C   0  0  0  0  0  0  0  0  0  0  0  0
  -13.4678   -5.3030    0.0000 C   0  0  0  0  0  0  0  0  0  0  0  0
  -14.6972   -6.1623    0.0000 C   0  0  0  0  0  0  0  0  0  0  0  0
  -15.8720   -7.0950    0.0000 C   0  0  0  0  0  0  0  0  0  0  0  0
  -16.9877   -8.0976    0.0000 C   0  0  0  0  0  0  0  0  0  0  0  0
  -18.0403   -9.1663    0.0000 C   0  0  0  0  0  0  0  0  0  0  0  0
  -19.0257  -10.2972    0.0000 C   0  0  0  0  0  0  0  0  0  0  0  0
  -19.9404  -11.4861    0.0000 C   0  0  0  0  0  0  0  0  0  0  0  0
  -20.7808  -12.7285    0.0000 C   0  0  0  0  0  0  0  0  0  0  0  0
  -21.5440  -14.0198    0.0000 C   0  0  0  0  0  0  0  0  0  0  0  0
  -22.2270  -15.3553    0.0000 C   0  0  0  0  0  0  0  0  0  0  0  0
  -22.8274  -16.7299    0.0000 C   0  0  0  0  0  0  0  0  0  0  0  0
  -23.3428  -18.1386    0.0000 C   0  0  0  0  0  0  0  0  0  0  0  0
  -23.7714  -19.5760    0.0000 C   0  0  0  0  0  0  0  0  0  0  0  0
  -24.1115  -21.0370    0.0000 C   0  0  0  0  0  0  0  0  0  0  0  0
  -24.3620  -22.5159    0.0000 C   0  0  0  0  0  0  0  0  0  0  0  0
  -24.5218  -24.0074    0.0000 C   0  0  0  0  0  0  0  0  0  0  0  0
  -24.5904  -25.5058    0.0000 C   0  0  0  0  0  0  0  0  0  0  0  0
  -24.5675  -27.0056    0.0000 C   0  0  0  0  0  0  0  0  0  0  0  0
  -24.4532  -28.5013    0.0000 C   0  0  0  0  0  0  0  0  0  0  0  0
  -24.2480  -29.9872    0.0000 C   0  0  0  0  0  0  0  0  0  0  0  0
  -23.9526  -31.4578    0.0000 C   0  0  0  0  0  0  0  0  0  0  0  0
  -23.5680  -32.9077    0.0000 C   0  0  0  0  0  0  0  0  0  0  0  0
  -23.0958  -34.3314    0.0000 C   0  0  0  0  0  0  0  0  0  0  0  0
  -22.5377  -35.7237    0.0000 C   0  0  0  0  0  0  0  0  0  0  0  0
  -21.8957  -37.0794    0.0000 C   0  0  0  0  0  0  0  0  0  0  0  0
  -21.1723  -38.3934    0.0000 C   0  0  0  0  0  0  0  0  0  0  0  0
  -20.3701  -39.6608    0.0000 C   0  0  0  0  0  0  0  0  0  0  0  0
  -19.4921  -40.8771    0.0000 C   0  0  0  0  0  0  0  0  0  0  0  0
  -18.5416  -42.0375    0.0000 C   0  0  0  0  0  0  0  0  0  0  0  0
  -17.5222  -43.1378    0.0000 C   0  0  0  0  0  0  0  0  0  0  0  0
  -16.4375  -44.1739    0.0000 C   0  0  0  0  0  0  0  0  0  0  0  0
  -15.2917  -45.1420    0.0000 C   0  0  0  0  0  0  0  0  0  0  0  0
  -14.0890  -46.0384    0.0000 C   0  0  0  0  0  0  0  0  0  0  0  0
  -12.8339  -46.8598    0.0000 C   0  0  0  0  0  0  0  0  0  0  0  0
  -11.5311  -47.6032    0.0000 C   0  0  0  0  0  0  0  0  0  0  0  0
  -10.1854  -48.2658    0.0000 C   0  0  0  0  0  0  0  0  0  0  0  0
   -8.8018  -48.8451    0.0000 C   0  0  0  0  0  0  0  0  0  0  0  0
   -7.3854  -49.3390    0.0000 C   0  0  0  0  0  0  0  0  0  0  0  0
   -5.9416  -49.7456    0.0000 C   0  0  0  0  0  0  0  0  0  0  0  0
   -4.4756  -50.0634    0.0000 C   0  0  0  0  0  0  0  0  0  0  0  0
   -2.9930  -50.2913    0.0000 C   0  0  0  0  0  0  0  0  0  0  0  0
   -1.4993  -50.4284    0.0000 C   0  0  0  0  0  0  0  0  0  0  0  0
    0.0000  -50.4741    0.0000 C   0  0  0  0  0  0  0  0  0  0  0  0
    1.4993  -50.4284    0.0000 C   0  0  0  0  0  0  0  0  0  0  0  0
    2.9930  -50.2913    0.0000 C   0  0  0  0  0  0  0  0  0  0  0  0
    4.4756  -50.0634    0.0000 C   0  0  0  0  0  0  0  0  0  0  0  0
    5.9416  -49.7456    0.0000 C   0  0  0  0  0  0  0  0  0  0  0  0
    7.3854  -49.3390    0.0000 C   0  0  0  0  0  0  0  0  0  0  0  0
    8.8018  -48.8451    0.0000 C   0  0  0  0  0  0  0  0  0  0  0  0
   10.1854  -48.2658    0.0000 C   0  0  0  0  0  0  0  0  0  0  0  0
   11.5311  -47.6032    0.0000 C   0  0  0  0  0  0  0  0  0  0  0  0
   12.8339  -46.8598    0.0000 C   0  0  0  0  0  0  0  0  0  0  0  0
   14.0890  -46.0384    0.0000 C   0  0  0  0  0  0  0  0  0  0  0  0
   15.2917  -45.1420    0.0000 C   0  0  0  0  0  0  0  0  0  0  0  0
   16.4375  -44.1739    0.0000 C   0  0  0  0  0  0  0  0  0  0  0  0
   17.5222  -43.1378    0.0000 C   0  0  0  0  0  0  0  0  0  0  0  0
   18.5416  -42.0375    0.0000 C   0  0  0  0  0  0  0  0  0  0  0  0
   19.4921  -40.8771    0.0000 C   0  0  0  0  0  0  0  0  0  0  0  0
   20.3701  -39.6608    0.0000 C   0  0  0  0  0  0  0  0  0  0  0  0
   21.1723  -38.3934    0.0000 C   0  0  0  0  0  0  0  0  0  0  0  0
   21.8957  -37.0794    0.0000 C   0  0  0  0  0  0  0  0  0  0  0  0
   22.5377  -35.7237    0.0000 C   0  0  0  0  0  0  0  0  0  0  0  0
   23.0958  -34.3314    0.0000 C   0  0  0  0  0  0  0  0  0  0  0  0
   23.5680  -32.9077    0.0000 C   0  0  0  0  0  0  0  0  0  0  0  0
   23.9526  -31.4578    0.0000 C   0  0  0  0  0  0  0  0  0  0  0  0
   24.2480  -29.9872    0.0000 C   0  0  0  0  0  0  0  0  0  0  0  0
   24.4532  -28.5013    0.0000 C   0  0  0  0  0  0  0  0  0  0  0  0
   24.5675  -27.0056    0.0000 C   0  0  0  0  0  0  0  0  0  0  0  0
   24.5904  -25.5058    0.0000 C   0  0  0  0  0  0  0  0  0  0  0  0
   24.5218  -24.0074    0.0000 C   0  0  0  0  0  0  0  0  0  0  0  0
   24.3620  -22.5159    0.0000 C   0  0  0  0  0  0  0  0  0  0  0  0
   24.1115  -21.0370    0.0000 C   0  0  0  0  0  0  0  0  0  0  0  0
   23.7714  -19.5760    0.0000 C   0  0  0  0  0  0  0  0  0  0  0  0
   23.3428  -18.1386    0.0000 C   0  0  0  0  0  0  0  0  0  0  0  0
   22.8274  -16.7299    0.0000 C   0  0  0  0  0  0  0  0  0  0  0  0
   22.2270  -15.3553    0.0000 C   0  0  0  0  0  0  0  0  0  0  0  0
   21.5440  -14.0198    0.0000 C   0  0  0  0  0  0  0  0  0  0  0  0
   20.7808  -12.7285    0.0000 C   0  0  0  0  0  0  0  0  0  0  0  0
   19.9404  -11.4861    0.0000 C   0  0  0  0  0  0  0  0  0  0  0  0
   19.0257  -10.2972    0.0000 C   0  0  0  0  0  0  0  0  0  0  0  0
   18.0403   -9.1663    0.0000 C   0  0  0  0  0  0  0  0  0  0  0  0
   16.9877   -8.0976    0.0000 C   0  0  0  0  0  0  0  0  0  0  0  0
   15.8720   -7.0950    0.0000 C   0  0  0  0  0  0  0  0  0  0  0  0
   14.6972   -6.1623    0.0000 C   0  0  0  0  0  0  0  0  0  0  0  0
   13.4678   -5.3030    0.0000 C   0  0  0  0  0  0  0  0  0  0  0  0
   12.1882   -4.5202    0.0000 C   0  0  0  0  0  0  0  0  0  0  0  0
   10.8633   -3.8169    0.0000 C   0  0  0  0  0  0  0  0  0  0  0  0
    9.4980   -3.1957    0.0000 C   0  0  0  0  0  0  0  0  0  0  0  0
    8.0973   -2.6589    0.0000 C   0  0  0  0  0  0  0  0  0  0  0  0
    6.6666   -2.2084    0.0000 C   0  0  0  0  0  0  0  0  0  0  0  0
    5.2110   -1.8460    0.0000 C   0  0  0  0  0  0  0  0  0  0  0  0
    3.7361   -1.5730    0.0000 C   0  0  0  0  0  0  0  0  0  0  0  0
    2.2472   -1.3905    0.0000 C   0  0  0  0  0  0  0  0  0  0  0  0
    0.7500   -1.2990    0.0000 C   0  0  0  0  0  0  0  0  0  0  0  0
    1.5000    0.0000    0.0000 C   0  0  0  0  0  0  0  0  0  0  0  0
    0.7500    1.2990    0.0000 C   0  0  0  0  0  0  0  0  0  0  0  0
   -0.7500    1.2990    0.0000 C   0  0  0  0  0  0  0  0  0  0  0  0
   -1.5000    0.0000    0.0000 C   0  0  0  0  0  0  0  0  0  0  0  0
   -0.7500   -1.2990    0.0000 C   0  0  0  0  0  0  0  0  0  0  0  0
   -2.2472   -1.3905    0.0000 C   0  0  0  0  0  0  0  0  0  0  0  0
   -1.3447   -2.5886    0.0000 C   0  0  0  0  0  0  0  0  0  0  0  0
   -1.9310   -3.9692    0.0000 C   0  0  0  0  0  0  0  0  0  0  0  0
   -3.4199   -4.1518    0.0000 C   0  0  0  0  0  0  0  0  0  0  0  0
   -4.3224   -2.9537    0.0000 C   0  0  0  0  0  0  0  0  0  0  0  0
   -3.7361   -1.5730    0.0000 C   0  0  0  0  0  0  0  0  0  0  0  0
  1  2  1  0
  2  3  1  0
  3  4  1  0
  4  5  1  0
  5  6  1  0
  6  7  1  0
  7  8  1  0
  8  9  1  0
  9 10  1  0
 10 11  1  0
 11 12  1  0
 12 13  1  0
 13 14  1  0
 14 15  1  0
 15 16  1  0
 16 17  1  0
 17 18  1  0
 18 19  1  0
 19 20  1  0
 20 21  1  0
 21 22  1  0
 22 23  1  0
 23 24  1  0
 24 25  1  0
 25 26  1  0
 26 27  1  0
 27 28  1  0
 28 29  1  0
 29 30  1  0
 30 31  1  0
 31 32  1  0
 32 33  1  0
 33 34  1  0
 34 35  1  0
 35 36  1  0
 36 37  1  0
 37 38  1  0
 38 39  1  0
 39 40  1  0
 40 41  1  0
 41 42  1  0
 42 43  1  0
 43 44  1  0
 44 45  1  0
 45 46  1  0
 46 47  1  0
 47 48  1  0
 48 49  1  0
 49 50  1  0
 50 51  1  0
 51 52  1  0
 52 53  1  0
 53 54  1  0
 54 55  1  0
 55 56  1  0
 56 57  1  0
 57 58  1  0
 58 59  1  0
 59 60  1  0
 60 61  1  0
 61 62  1  0
 62 63  1  0
 63 64  1  0
 64 65  1  0
 65 66  1  0
 66 67  1  0
 67 68  1  0
 68 69  1  0
 69 70  1  0
 70 71  1  0
 71 72  1  0
 72 73  1  0
 73 74  1  0
 74 75  1  0
 75 76  1  0
 76 77  1  0
 77 78  1  0
 78 79  1  0
 79 80  1  0
 80 81  1  0
 81 82  1  0
 82 83  1  0
 83 84  1  0
 84 85  1  0
 85 86  1  0
 86 87  1  0
 87 88  1  0
 88 89  1  0
 89 90  1  0
 90 91  1  0
 91 92  1  0
 92 93  1  0
 93 94  1  0
 94 95  1  0
 95 96  1  0
 96 97  1  0
 97 98  1  0
 98 99  1  0
 99100  1  0
100101  1  0
101102  2  0
102103  1  0
103104  2  0
104105  1  0
105106  2  0
106107  1  0
107108  2  0
108109  1  0
109110  2  0
110111  1  0
111112  2  0
112  2  1  0
106101  1  0
112107  1  0
M  END
>  <Title>  (99) 
idAABWgen14

$$$$

     RDKit          2D

 20 21  0  0  0  0  0  0  0  0999 V2000
   -9.5939  -10.9121    0.0000 C   0  0  0  0  0  0  0  0  0  0  0  0
   -8.1673  -10.4486    0.0000 C   0  0  0  0  0  0  0  0  0  0  0  0
   -7.0526  -11.4523    0.0000 C   0  0  0  0  0  0  0  0  0  0  0  0
   -7.8555   -8.9814    0.0000 C   0  0  0  0  0  0  0  0  0  0  0  0
   -8.9702   -7.9777    0.0000 O   0  0  0  0  0  0  0  0  0  0  0  0
   -6.4289   -8.5179    0.0000 N   0  0  0  0  0  0  0  0  0  0  0  0
   -6.1170   -7.0506    0.0000 C   0  0  0  0  0  0  0  0  0  0  0  0
   -4.6904   -6.5871    0.0000 C   0  0  0  0  0  0  0  0  0  0  0  0
   -4.3786   -5.1199    0.0000 N   0  0  0  0  0  0  0  0  0  0  0  0
   -2.9520   -4.6564    0.0000 N   0  0  0  0  0  0  0  0  0  0  0  0
   -2.6401   -3.1891    0.0000 N   0  0  0  0  0  0  0  0  0  0  0  0
   -1.2135   -2.7256    0.0000 N   0  0  0  0  0  0  0  0  0  0  0  0
   -0.0000   -3.6073    0.0000 C   0  0  0  0  0  0  0  0  0  0  0  0
    1.2135   -2.7256    0.0000 C   0  0  0  0  0  0  0  0  0  0  0  0
    0.7500   -1.2990    0.0000 C   0  0  0  0  0  0  0  0  0  0  0  0
    1.5000    0.0000    0.0000 C   0  0  0  0  0  0  0  0  0  0  0  0
    0.7500    1.2990    0.0000 C   0  0  0  0  0  0  0  0  0  0  0  0
   -0.7500    1.2990    0.0000 C   0  0  0  0  0  0  0  0  0  0  0  0
   -1.5000    0.0000    0.0000 C   0  0  0  0  0  0  0  0  0  0  0  0
   -0.7500   -1.2990    0.0000 C   0  0  0  0  0  0  0  0  0  0  0  0
  1  2  1  0
  2  3  1  0
  2  4  1  0
  4  5  2  0
  4  6  1  0
  6  7  1  0
  7  8  1  0
  8  9  2  3
  9 10  1  0
 10 11  2  3
 11 12  1  0
 12 13  1  0
 13 14  1  0
 14 15  1  0
 15 16  2  0
 16 17  1  0
 17 18  2  0
 18 19  1  0
 19 20  2  0
 20 12  1  0
 20 15  1  0
M  END
>  <Title>  (100) 
idAABXgen14

$$$$

     RDKit          2D

  6  5  0  0  0  0  0  0  0  0999 V2000
    0.0000    0.0000    0.0000 C   0  0  0  0  0  0  0  0  0  0  0  0
    1.2990    0.7500    0.0000 C   0  0  0  0  0  0  0  0  0  0  0  0
    2.5981   -0.0000    0.0000 C   0  0  0  0  0  0  0  0  0  0  0  0
    1.2990    2.2500    0.0000 C   0  0  0  0  0  0  0  0  0  0  0  0
    2.5981    3.0000    0.0000 C   0  0  0  0  0  0  0  0  0  0  0  0
    3.8971    3.7500    0.0000 N   0  0  0  0  0  0  0  0  0  0  0  0
  1  2  1  0
  2  3  1  0
  2  4  1  0
  4  5  1  0
  5  6  3  0
M  END
>  <Title>  (101) 
idAABYgen14

$$$$

     RDKit          2D

 43 48  0  0  0  0  0  0  0  0999 V2000
    3.9271   -3.6073    0.0000 C   0  0  0  0  0  0  0  0  0  0  0  0
    2.4271   -3.6073    0.0000 C   0  0  0  0  0  0  0  0  0  0  0  0
    1.9635   -2.1807    0.0000 O   0  0  0  0  0  0  0  0  0  0  0  0
    0.7500   -1.2990    0.0000 C   0  0  0  0  0  0  0  0  0  0  0  0
    1.5000    0.0000    0.0000 C   0  0  0  0  0  0  0  0  0  0  0  0
    0.7500    1.2990    0.0000 C   0  0  0  0  0  0  0  0  0  0  0  0
   -0.7500    1.2990    0.0000 C   0  0  0  0  0  0  0  0  0  0  0  0
   -1.5000    0.0000    0.0000 C   0  0  0  0  0  0  0  0  0  0  0  0
   -0.7500   -1.2990    0.0000 C   0  0  0  0  0  0  0  0  0  0  0  0
   -1.9635   -2.1807    0.0000 C   0  0  0  0  0  0  0  0  0  0  0  0
   -2.9672   -1.0660    0.0000 C   0  0  0  0  0  0  0  0  0  0  0  0
   -4.4344   -1.3779    0.0000 C   0  0  0  0  0  0  0  0  0  0  0  0
   -4.8980   -2.8045    0.0000 C   0  0  0  0  0  0  0  0  0  0  0  0
   -3.8943   -3.9192    0.0000 C   0  0  0  0  0  0  0  0  0  0  0  0
   -2.4271   -3.6073    0.0000 C   0  0  0  0  0  0  0  0  0  0  0  0
   -1.9635   -5.0339    0.0000 C   0  0  0  0  0  0  0  0  0  0  0  0
   -3.1771   -5.9156    0.0000 C   0  0  0  0  0  0  0  0  0  0  0  0
   -0.7500   -5.9156    0.0000 C   0  0  0  0  0  0  0  0  0  0  0  0
    0.7500   -5.9156    0.0000 C   0  0  0  0  0  0  0  0  0  0  0  0
    1.9635   -5.0339    0.0000 C   0  0  0  0  0  0  0  0  0  0  0  0
    3.1771   -5.9156    0.0000 C   0  0  0  0  0  0  0  0  0  0  0  0
    4.5474   -5.3055    0.0000 O   0  0  0  0  0  0  0  0  0  0  0  0
    3.0203   -7.4073    0.0000 N   0  0  0  0  0  0  0  0  0  0  0  0
    4.2338   -8.2890    0.0000 C   0  0  0  0  0  0  0  0  0  0  0  0
    5.6604   -7.8255    0.0000 N   0  0  0  0  0  0  0  0  0  0  0  0
    6.5420   -9.0390    0.0000 N   0  0  0  0  0  0  0  0  0  0  0  0
    5.6604  -10.2525    0.0000 N   0  0  0  0  0  0  0  0  0  0  0  0
    4.2338   -9.7890    0.0000 N   0  0  0  0  0  0  0  0  0  0  0  0
    3.0203  -10.6707    0.0000 N   0  0  0  0  0  0  0  0  0  0  0  0
    3.0203  -12.1707    0.0000 C   0  0  0  0  0  0  0  0  0  0  0  0
    1.5937  -12.6342    0.0000 C   0  0  0  0  0  0  0  0  0  0  0  0
    0.7120  -11.4207    0.0000 N   0  0  0  0  0  0  0  0  0  0  0  0
   -0.7880  -11.4207    0.0000 C   0  0  0  0  0  0  0  0  0  0  0  0
   -1.5380  -12.7197    0.0000 O   0  0  0  0  0  0  0  0  0  0  0  0
   -1.5380  -10.1217    0.0000 N   0  0  0  0  0  0  0  0  0  0  0  0
   -3.0380  -10.1217    0.0000 C   0  0  0  0  0  0  0  0  0  0  0  0
   -3.7880   -8.8226    0.0000 N   0  0  0  0  0  0  0  0  0  0  0  0
   -5.2880   -8.8226    0.0000 N   0  0  0  0  0  0  0  0  0  0  0  0
   -6.0380  -10.1217    0.0000 N   0  0  0  0  0  0  0  0  0  0  0  0
   -5.2880  -11.4207    0.0000 N   0  0  0  0  0  0  0  0  0  0  0  0
   -3.7880  -11.4207    0.0000 N   0  0  0  0  0  0  0  0  0  0  0  0
    1.5937  -10.2072    0.0000 C   0  0  0  0  0  0  0  0  0  0  0  0
    1.1301   -8.7806    0.0000 O   0  0  0  0  0  0  0  0  0  0  0  0
  1  2  2  0
  2  3  1  0
  3  4  1  0
  4  5  2  0
  5  6  1  0
  6  7  2  0
  7  8  1  0
  8  9  2  0
  9 10  1  0
 10 11  2  0
 11 12  1  0
 12 13  2  0
 13 14  1  0
 14 15  2  0
 15 16  1  0
 16 17  1  0
 16 18  1  0
 18 19  2  0
 19 20  1  0
 20 21  1  0
 21 22  2  0
 21 23  1  0
 23 24  1  0
 24 25  2  0
 25 26  1  0
 26 27  2  0
 27 28  1  0
 28 29  1  0
 29 30  1  0
 30 31  1  0
 31 32  1  0
 32 33  1  0
 33 34  2  0
 33 35  1  0
 35 36  1  0
 36 37  2  0
 37 38  1  0
 38 39  2  0
 39 40  1  0
 40 41  2  0
 32 42  1  0
 42 43  2  0
 20  2  1  0
 28 24  1  0
 42 29  1  0
  9  4  1  0
 15 10  1  0
 41 36  1  0
M  END
>  <Title>  (102) 
idAABZgen14

$$$$

     RDKit          2D

 32 32  0  0  0  0  0  0  0  0999 V2000
   40.5000    0.0000    0.0000 C   0  0  0  0  0  0  0  0  0  0  0  0
   39.0000    0.0000    0.0000 C   0  0  0  0  0  0  0  0  0  0  0  0
   37.5000    0.0000    0.0000 C   0  0  0  0  0  0  0  0  0  0  0  0
   36.0000    0.0000    0.0000 C   0  0  0  0  0  0  0  0  0  0  0  0
   34.5000    0.0000    0.0000 C   0  0  0  0  0  0  0  0  0  0  0  0
   33.0000    0.0000    0.0000 C   0  0  0  0  0  0  0  0  0  0  0  0
   31.5000    0.0000    0.0000 C   0  0  0  0  0  0  0  0  0  0  0  0
   30.0000    0.0000    0.0000 C   0  0  0  0  0  0  0  0  0  0  0  0
   28.5000    0.0000    0.0000 C   0  0  0  0  0  0  0  0  0  0  0  0
   27.0000    0.0000    0.0000 C   0  0  0  0  0  0  0  0  0  0  0  0
   25.5000    0.0000    0.0000 C   0  0  0  0  0  0  0  0  0  0  0  0
   24.0000    0.0000    0.0000 C   0  0  0  0  0  0  0  0  0  0  0  0
   22.5000    0.0000    0.0000 C   0  0  0  0  0  0  0  0  0  0  0  0
   21.0000    0.0000    0.0000 C   0  0  0  0  0  0  0  0  0  0  0  0
   19.5000    0.0000    0.0000 C   0  0  0  0  0  0  0  0  0  0  0  0
   18.0000    0.0000    0.0000 C   0  0  0  0  0  0  0  0  0  0  0  0
   16.5000    0.0000    0.0000 C   0  0  0  0  0  0  0  0  0  0  0  0
   15.0000    0.0000    0.0000 C   0  0  0  0  0  0  0  0  0  0  0  0
   13.5000    0.0000    0.0000 C   0  0  0  0  0  0  0  0  0  0  0  0
   12.0000    0.0000    0.0000 C   0  0  0  0  0  0  0  0  0  0  0  0
   10.5000    0.0000    0.0000 C   0  0  0  0  0  0  0  0  0  0  0  0
    9.0000    0.0000    0.0000 C   0  0  0  0  0  0  0  0  0  0  0  0
    7.5000    0.0000    0.0000 C   0  0  0  0  0  0  0  0  0  0  0  0
    6.0000    0.0000    0.0000 C   0  0  0  0  0  0  0  0  0  0  0  0
    4.5000    0.0000    0.0000 C   0  0  0  0  0  0  0  0  0  0  0  0
    3.0000    0.0000    0.0000 C   0  0  0  0  0  0  0  0  0  0  0  0
    1.5000    0.0000    0.0000 C   0  0  0  0  0  0  0  0  0  0  0  0
    0.7500   -1.2990    0.0000 C   0  0  0  0  0  0  0  0  0  0  0  0
   -0.7500   -1.2990    0.0000 C   0  0  0  0  0  0  0  0  0  0  0  0
   -1.5000    0.0000    0.0000 C   0  0  0  0  0  0  0  0  0  0  0  0
   -0.7500    1.2990    0.0000 C   0  0  0  0  0  0  0  0  0  0  0  0
    0.7500    1.2990    0.0000 C   0  0  0  0  0  0  0  0  0  0  0  0
  1  2  3  0
  2  3  1  0
  3  4  3  0
  4  5  1  0
  5  6  3  0
  6  7  1  0
  7  8  3  0
  8  9  1  0
  9 10  3  0
 10 11  1  0
 11 12  3  0
 12 13  1  0
 13 14  3  0
 14 15  1  0
 15 16  3  0
 16 17  1  0
 17 18  3  0
 18 19  1  0
 19 20  3  0
 20 21  1  0
 21 22  3  0
 22 23  1  0
 23 24  3  0
 24 25  1  0
 25 26  3  0
 26 27  1  0
 27 28  2  0
 28 29  1  0
 29 30  1  0
 30 31  1  0
 31 32  2  0
 32 27  1  0
M  END
>  <Title>  (103) 
idAACAgen14

$$$$

     RDKit          2D

 36 40  0  0  0  0  0  0  0  0999 V2000
    8.2500    3.8971    0.0000 C   0  0  0  0  0  0  0  0  0  0  0  0
    7.5000    2.5981    0.0000 C   0  0  0  0  0  0  0  0  0  0  0  0
    8.2500    1.2990    0.0000 C   0  0  0  0  0  0  0  0  0  0  0  0
    7.5000    0.0000    0.0000 C   0  0  0  0  0  0  0  0  0  0  0  0
    6.0000    0.0000    0.0000 C   0  0  0  0  0  0  0  0  0  0  0  0
    5.2500   -1.2990    0.0000 O   0  0  0  0  0  0  0  0  0  0  0  0
    6.0000   -2.5981    0.0000 C   0  0  0  0  0  0  0  0  0  0  0  0
    7.5000   -2.5981    0.0000 O   0  0  0  0  0  0  0  0  0  0  0  0
    5.2500   -3.8971    0.0000 N   0  0  0  0  0  0  0  0  0  0  0  0
    6.0000   -5.1962    0.0000 C   0  0  0  0  0  0  0  0  0  0  0  0
    7.4918   -5.3529    0.0000 N   0  0  0  0  0  0  0  0  0  0  0  0
    7.8037   -6.8202    0.0000 N   0  0  0  0  0  0  0  0  0  0  0  0
    6.5046   -7.5702    0.0000 N   0  0  0  0  0  0  0  0  0  0  0  0
    5.3899   -6.5665    0.0000 N   0  0  0  0  0  0  0  0  0  0  0  0
    3.9227   -6.8783    0.0000 C   0  0  0  0  0  0  0  0  0  0  0  0
    2.8080   -5.8746    0.0000 C   0  0  0  0  0  0  0  0  0  0  0  0
    1.5089   -6.6246    0.0000 C   0  0  0  0  0  0  0  0  0  0  0  0
    1.8208   -8.0919    0.0000 C   0  0  0  0  0  0  0  0  0  0  0  0
    0.8171   -9.2066    0.0000 O   0  0  0  0  0  0  0  0  0  0  0  0
   -0.6501   -8.8947    0.0000 C   0  0  0  0  0  0  0  0  0  0  0  0
   -1.1137   -7.4681    0.0000 O   0  0  0  0  0  0  0  0  0  0  0  0
   -1.6538  -10.0094    0.0000 N   0  0  0  0  0  0  0  0  0  0  0  0
   -3.1210   -9.6976    0.0000 C   0  0  0  0  0  0  0  0  0  0  0  0
   -4.1247  -10.8123    0.0000 N   0  0  0  0  0  0  0  0  0  0  0  0
   -5.5920  -10.5004    0.0000 N   0  0  0  0  0  0  0  0  0  0  0  0
   -6.0555   -9.0738    0.0000 N   0  0  0  0  0  0  0  0  0  0  0  0
   -5.0518   -7.9591    0.0000 N   0  0  0  0  0  0  0  0  0  0  0  0
   -3.5846   -8.2710    0.0000 N   0  0  0  0  0  0  0  0  0  0  0  0
    3.3126   -8.2487    0.0000 C   0  0  0  0  0  0  0  0  0  0  0  0
    4.0626   -9.5477    0.0000 O   0  0  0  0  0  0  0  0  0  0  0  0
    5.2500    1.2990    0.0000 C   0  0  0  0  0  0  0  0  0  0  0  0
    3.7500    1.2990    0.0000 C   0  0  0  0  0  0  0  0  0  0  0  0
    3.0000    2.5981    0.0000 C   0  0  0  0  0  0  0  0  0  0  0  0
    3.7500    3.8971    0.0000 C   0  0  0  0  0  0  0  0  0  0  0  0
    5.2500    3.8971    0.0000 C   0  0  0  0  0  0  0  0  0  0  0  0
    6.0000    2.5981    0.0000 C   0  0  0  0  0  0  0  0  0  0  0  0
  1  2  1  0
  2  3  2  0
  3  4  1  0
  4  5  2  0
  5  6  1  0
  6  7  1  0
  7  8  2  0
  7  9  1  0
  9 10  1  0
 10 11  2  0
 11 12  1  0
 12 13  2  0
 13 14  1  0
 14 15  1  0
 15 16  2  0
 16 17  1  0
 17 18  2  0
 18 19  1  0
 19 20  1  0
 20 21  2  0
 20 22  1  0
 22 23  1  0
 23 24  2  0
 24 25  1  0
 25 26  2  0
 26 27  1  0
 27 28  2  0
 18 29  1  0
 29 30  2  0
  5 31  1  0
 31 32  2  0
 32 33  1  0
 33 34  2  0
 34 35  1  0
 35 36  2  0
 36  2  1  0
 14 10  1  0
 29 15  1  0
 36 31  1  0
 28 23  1  0
M  END
>  <Title>  (104) 
idAACBgen14

$$$$

     RDKit          2D

 34 38  0  0  0  0  0  0  0  0999 V2000
   -2.6401   -3.1891    0.0000 C   0  0  0  0  0  0  0  0  0  0  0  0
   -1.2135   -2.7256    0.0000 C   0  0  0  0  0  0  0  0  0  0  0  0
   -0.0000   -3.6073    0.0000 N   0  0  0  0  0  0  0  0  0  0  0  0
    1.2135   -2.7256    0.0000 N   0  0  0  0  0  0  0  0  0  0  0  0
    2.6401   -3.1891    0.0000 C   0  0  0  0  0  0  0  0  0  0  0  0
    3.7548   -2.1855    0.0000 O   0  0  0  0  0  0  0  0  0  0  0  0
    2.9520   -4.6564    0.0000 N   0  0  0  0  0  0  0  0  0  0  0  0
    4.3786   -5.1199    0.0000 C   0  0  0  0  0  0  0  0  0  0  0  0
    5.5921   -4.2382    0.0000 N   0  0  0  0  0  0  0  0  0  0  0  0
    6.8056   -5.1199    0.0000 N   0  0  0  0  0  0  0  0  0  0  0  0
    6.3421   -6.5465    0.0000 N   0  0  0  0  0  0  0  0  0  0  0  0
    4.8421   -6.5465    0.0000 N   0  0  0  0  0  0  0  0  0  0  0  0
    3.9604   -7.7600    0.0000 C   0  0  0  0  0  0  0  0  0  0  0  0
    4.4239   -9.1866    0.0000 C   0  0  0  0  0  0  0  0  0  0  0  0
    3.2104  -10.0683    0.0000 C   0  0  0  0  0  0  0  0  0  0  0  0
    1.9969   -9.1866    0.0000 C   0  0  0  0  0  0  0  0  0  0  0  0
    0.5703   -9.6501    0.0000 O   0  0  0  0  0  0  0  0  0  0  0  0
   -0.5444   -8.6464    0.0000 C   0  0  0  0  0  0  0  0  0  0  0  0
   -0.2325   -7.1792    0.0000 O   0  0  0  0  0  0  0  0  0  0  0  0
   -1.9710   -9.1099    0.0000 N   0  0  0  0  0  0  0  0  0  0  0  0
   -3.0857   -8.1062    0.0000 C   0  0  0  0  0  0  0  0  0  0  0  0
   -2.7739   -6.6390    0.0000 N   0  0  0  0  0  0  0  0  0  0  0  0
   -3.8886   -5.6353    0.0000 N   0  0  0  0  0  0  0  0  0  0  0  0
   -5.3152   -6.0989    0.0000 N   0  0  0  0  0  0  0  0  0  0  0  0
   -5.6270   -7.5661    0.0000 N   0  0  0  0  0  0  0  0  0  0  0  0
   -4.5123   -8.5698    0.0000 N   0  0  0  0  0  0  0  0  0  0  0  0
    2.4604   -7.7600    0.0000 C   0  0  0  0  0  0  0  0  0  0  0  0
    1.5787   -6.5465    0.0000 O   0  0  0  0  0  0  0  0  0  0  0  0
    0.7500   -1.2990    0.0000 C   0  0  0  0  0  0  0  0  0  0  0  0
    1.5000    0.0000    0.0000 C   0  0  0  0  0  0  0  0  0  0  0  0
    0.7500    1.2990    0.0000 C   0  0  0  0  0  0  0  0  0  0  0  0
   -0.7500    1.2990    0.0000 C   0  0  0  0  0  0  0  0  0  0  0  0
   -1.5000    0.0000    0.0000 C   0  0  0  0  0  0  0  0  0  0  0  0
   -0.7500   -1.2990    0.0000 C   0  0  0  0  0  0  0  0  0  0  0  0
  1  2  1  0
  2  3  2  0
  3  4  1  0
  4  5  1  0
  5  6  2  0
  5  7  1  0
  7  8  1  0
  8  9  2  0
  9 10  1  0
 10 11  2  0
 11 12  1  0
 12 13  1  0
 13 14  2  0
 14 15  1  0
 15 16  2  0
 16 17  1  0
 17 18  1  0
 18 19  2  0
 18 20  1  0
 20 21  1  0
 21 22  2  0
 22 23  1  0
 23 24  2  0
 24 25  1  0
 25 26  2  0
 16 27  1  0
 27 28  2  0
  4 29  1  0
 29 30  2  0
 30 31  1  0
 31 32  2  0
 32 33  1  0
 33 34  2  0
 34  2  1  0
 12  8  1  0
 27 13  1  0
 34 29  1  0
 26 21  1  0
M  END
>  <Title>  (105) 
idAACCgen14

$$$$

     RDKit          2D

 12 12  0  0  0  0  0  0  0  0999 V2000
    6.0000    0.0000    0.0000 O   0  0  0  0  0  0  0  0  0  0  0  0
    5.2500   -1.2990    0.0000 C   0  0  0  0  0  0  0  0  0  0  0  0
    6.0000   -2.5981    0.0000 C   0  0  0  0  0  0  0  0  0  0  0  0
    7.5000   -2.5981    0.0000 O   0  0  0  0  0  0  0  0  0  0  0  0
    3.7500   -1.2990    0.0000 N   0  0  0  0  0  0  0  0  0  0  0  0
    3.0000    0.0000    0.0000 C   0  0  0  0  0  0  0  0  0  0  0  0
    1.5000    0.0000    0.0000 C   0  0  0  0  0  0  0  0  0  0  0  0
    0.7500   -1.2990    0.0000 C   0  0  0  0  0  0  0  0  0  0  0  0
   -0.7500   -1.2990    0.0000 C   0  0  0  0  0  0  0  0  0  0  0  0
   -1.5000    0.0000    0.0000 C   0  0  0  0  0  0  0  0  0  0  0  0
   -0.7500    1.2990    0.0000 N   0  0  0  0  0  0  0  0  0  0  0  0
    0.7500    1.2990    0.0000 C   0  0  0  0  0  0  0  0  0  0  0  0
  1  2  2  0
  2  3  1  0
  3  4  1  0
  2  5  1  0
  5  6  1  0
  6  7  1  0
  7  8  2  0
  8  9  1  0
  9 10  2  0
 10 11  1  0
 11 12  2  0
 12  7  1  0
M  END
>  <Title>  (106) 
idAACDgen14

$$$$

     RDKit          2D

 43 48  0  0  0  0  0  0  0  0999 V2000
   -2.3737   -6.1885    0.0000 C   0  0  0  0  0  0  0  0  0  0  0  0
   -1.4095   -5.0395    0.0000 C   0  0  0  0  0  0  0  0  0  0  0  0
   -0.0000   -5.5525    0.0000 C   0  0  0  0  0  0  0  0  0  0  0  0
    1.4095   -5.0395    0.0000 C   0  0  0  0  0  0  0  0  0  0  0  0
    2.3737   -6.1885    0.0000 C   0  0  0  0  0  0  0  0  0  0  0  0
    3.8509   -5.9281    0.0000 O   0  0  0  0  0  0  0  0  0  0  0  0
    1.8607   -7.5981    0.0000 N   0  0  0  0  0  0  0  0  0  0  0  0
    2.8249   -8.7471    0.0000 C   0  0  0  0  0  0  0  0  0  0  0  0
    4.3212   -8.6425    0.0000 N   0  0  0  0  0  0  0  0  0  0  0  0
    4.8831  -10.0333    0.0000 N   0  0  0  0  0  0  0  0  0  0  0  0
    3.7341  -10.9975    0.0000 N   0  0  0  0  0  0  0  0  0  0  0  0
    2.4620  -10.2026    0.0000 N   0  0  0  0  0  0  0  0  0  0  0  0
    1.0712  -10.7645    0.0000 C   0  0  0  0  0  0  0  0  0  0  0  0
    0.7083  -12.2199    0.0000 C   0  0  0  0  0  0  0  0  0  0  0  0
   -0.7880  -12.3246    0.0000 C   0  0  0  0  0  0  0  0  0  0  0  0
   -1.3499  -10.9338    0.0000 C   0  0  0  0  0  0  0  0  0  0  0  0
   -2.8054  -10.5709    0.0000 O   0  0  0  0  0  0  0  0  0  0  0  0
   -3.2188   -9.1290    0.0000 C   0  0  0  0  0  0  0  0  0  0  0  0
   -2.1768   -8.0500    0.0000 O   0  0  0  0  0  0  0  0  0  0  0  0
   -4.6743   -8.7661    0.0000 N   0  0  0  0  0  0  0  0  0  0  0  0
   -5.0877   -7.3242    0.0000 C   0  0  0  0  0  0  0  0  0  0  0  0
   -4.0457   -6.2452    0.0000 N   0  0  0  0  0  0  0  0  0  0  0  0
   -4.4592   -4.8033    0.0000 N   0  0  0  0  0  0  0  0  0  0  0  0
   -5.9146   -4.4405    0.0000 N   0  0  0  0  0  0  0  0  0  0  0  0
   -6.9566   -5.5195    0.0000 N   0  0  0  0  0  0  0  0  0  0  0  0
   -6.5432   -6.9614    0.0000 N   0  0  0  0  0  0  0  0  0  0  0  0
   -0.2009   -9.9696    0.0000 C   0  0  0  0  0  0  0  0  0  0  0  0
   -0.3055   -8.4733    0.0000 O   0  0  0  0  0  0  0  0  0  0  0  0
    2.1595   -3.7404    0.0000 C   0  0  0  0  0  0  0  0  0  0  0  0
    3.6368   -4.0009    0.0000 O   0  0  0  0  0  0  0  0  0  0  0  0
    1.8991   -2.2632    0.0000 O   0  0  0  0  0  0  0  0  0  0  0  0
    0.7500   -1.2990    0.0000 C   0  0  0  0  0  0  0  0  0  0  0  0
    1.5000    0.0000    0.0000 C   0  0  0  0  0  0  0  0  0  0  0  0
    0.7500    1.2990    0.0000 C   0  0  0  0  0  0  0  0  0  0  0  0
   -0.7500    1.2990    0.0000 C   0  0  0  0  0  0  0  0  0  0  0  0
   -1.5000    0.0000    0.0000 C   0  0  0  0  0  0  0  0  0  0  0  0
   -0.7500   -1.2990    0.0000 C   0  0  0  0  0  0  0  0  0  0  0  0
   -1.8991   -2.2632    0.0000 C   0  0  0  0  0  0  0  0  0  0  0  0
   -3.0481   -1.2990    0.0000 C   0  0  0  0  0  0  0  0  0  0  0  0
   -4.4577   -1.8121    0.0000 C   0  0  0  0  0  0  0  0  0  0  0  0
   -4.7181   -3.2893    0.0000 C   0  0  0  0  0  0  0  0  0  0  0  0
   -3.5691   -4.2535    0.0000 C   0  0  0  0  0  0  0  0  0  0  0  0
   -2.1595   -3.7404    0.0000 C   0  0  0  0  0  0  0  0  0  0  0  0
  1  2  1  0
  2  3  2  0
  3  4  1  0
  4  5  1  0
  5  6  2  0
  5  7  1  0
  7  8  1  0
  8  9  2  0
  9 10  1  0
 10 11  2  0
 11 12  1  0
 12 13  1  0
 13 14  2  0
 14 15  1  0
 15 16  2  0
 16 17  1  0
 17 18  1  0
 18 19  2  0
 18 20  1  0
 20 21  1  0
 21 22  2  0
 22 23  1  0
 23 24  2  0
 24 25  1  0
 25 26  2  0
 16 27  1  0
 27 28  2  0
  4 29  1  0
 29 30  2  0
 29 31  1  0
 31 32  1  0
 32 33  2  0
 33 34  1  0
 34 35  2  0
 35 36  1  0
 36 37  2  0
 37 38  1  0
 38 39  2  0
 39 40  1  0
 40 41  2  0
 41 42  1  0
 42 43  2  0
 43  2  1  0
 12  8  1  0
 27 13  1  0
 37 32  1  0
 43 38  1  0
 26 21  1  0
M  END
>  <Title>  (107) 
idAACEgen14

$$$$

     RDKit          2D

 39 42  0  0  0  0  0  0  0  0999 V2000
   19.2406   -5.2087    0.0000 C   0  0  0  0  0  0  0  0  0  0  0  0
   17.7734   -4.8969    0.0000 O   0  0  0  0  0  0  0  0  0  0  0  0
   16.7697   -6.0116    0.0000 C   0  0  0  0  0  0  0  0  0  0  0  0
   17.2332   -7.4382    0.0000 C   0  0  0  0  0  0  0  0  0  0  0  0
   15.3025   -5.6997    0.0000 C   0  0  0  0  0  0  0  0  0  0  0  0
   14.8390   -4.2731    0.0000 C   0  0  0  0  0  0  0  0  0  0  0  0
   15.8426   -3.1584    0.0000 O   0  0  0  0  0  0  0  0  0  0  0  0
   13.3717   -3.9613    0.0000 N   0  0  0  0  0  0  0  0  0  0  0  0
   12.9082   -2.5347    0.0000 C   0  0  0  0  0  0  0  0  0  0  0  0
   11.4410   -2.2228    0.0000 C   0  0  0  0  0  0  0  0  0  0  0  0
   10.8309   -0.8525    0.0000 C   0  0  0  0  0  0  0  0  0  0  0  0
    9.3391   -1.0093    0.0000 C   0  0  0  0  0  0  0  0  0  0  0  0
    9.0272   -2.4765    0.0000 C   0  0  0  0  0  0  0  0  0  0  0  0
    7.6569   -3.0866    0.0000 O   0  0  0  0  0  0  0  0  0  0  0  0
    7.5001   -4.5784    0.0000 C   0  0  0  0  0  0  0  0  0  0  0  0
    8.7136   -5.4601    0.0000 O   0  0  0  0  0  0  0  0  0  0  0  0
    6.1298   -5.1885    0.0000 N   0  0  0  0  0  0  0  0  0  0  0  0
    5.9730   -6.6803    0.0000 C   0  0  0  0  0  0  0  0  0  0  0  0
    7.0877   -7.6840    0.0000 N   0  0  0  0  0  0  0  0  0  0  0  0
    6.4776   -9.0543    0.0000 N   0  0  0  0  0  0  0  0  0  0  0  0
    4.9858   -8.8975    0.0000 N   0  0  0  0  0  0  0  0  0  0  0  0
    4.6740   -7.4303    0.0000 N   0  0  0  0  0  0  0  0  0  0  0  0
    3.3037   -6.8202    0.0000 N   0  0  0  0  0  0  0  0  0  0  0  0
    2.0046   -7.5702    0.0000 C   0  0  0  0  0  0  0  0  0  0  0  0
    0.8899   -6.5665    0.0000 C   0  0  0  0  0  0  0  0  0  0  0  0
    1.5000   -5.1962    0.0000 N   0  0  0  0  0  0  0  0  0  0  0  0
    0.7500   -3.8971    0.0000 C   0  0  0  0  0  0  0  0  0  0  0  0
   -0.7500   -3.8971    0.0000 O   0  0  0  0  0  0  0  0  0  0  0  0
    1.5000   -2.5981    0.0000 N   0  0  0  0  0  0  0  0  0  0  0  0
    0.7500   -1.2990    0.0000 C   0  0  0  0  0  0  0  0  0  0  0  0
    1.5000    0.0000    0.0000 N   0  0  0  0  0  0  0  0  0  0  0  0
    0.7500    1.2990    0.0000 N   0  0  0  0  0  0  0  0  0  0  0  0
   -0.7500    1.2990    0.0000 N   0  0  0  0  0  0  0  0  0  0  0  0
   -1.5000    0.0000    0.0000 N   0  0  0  0  0  0  0  0  0  0  0  0
   -0.7500   -1.2990    0.0000 N   0  0  0  0  0  0  0  0  0  0  0  0
    2.9918   -5.3529    0.0000 C   0  0  0  0  0  0  0  0  0  0  0  0
    3.9955   -4.2382    0.0000 O   0  0  0  0  0  0  0  0  0  0  0  0
   10.3263   -3.2265    0.0000 C   0  0  0  0  0  0  0  0  0  0  0  0
   10.4831   -4.7183    0.0000 O   0  0  0  0  0  0  0  0  0  0  0  0
  1  2  1  0
  2  3  1  0
  3  4  1  0
  3  5  1  0
  5  6  1  0
  6  7  2  0
  6  8  1  0
  8  9  1  0
  9 10  1  0
 10 11  2  0
 11 12  1  0
 12 13  2  0
 13 14  1  0
 14 15  1  0
 15 16  2  0
 15 17  1  0
 17 18  1  0
 18 19  2  0
 19 20  1  0
 20 21  2  0
 21 22  1  0
 22 23  1  0
 23 24  1  0
 24 25  1  0
 25 26  1  0
 26 27  1  0
 27 28  2  0
 27 29  1  0
 29 30  1  0
 30 31  2  0
 31 32  1  0
 32 33  2  0
 33 34  1  0
 34 35  2  0
 26 36  1  0
 36 37  2  0
 13 38  1  0
 38 39  2  0
 38 10  1  0
 22 18  1  0
 36 23  1  0
 35 30  1  0
M  END
>  <Title>  (108) 
idAACFgen14

$$$$

     RDKit          2D

  8  7  0  0  0  0  0  0  0  0999 V2000
    0.0000    0.0000    0.0000 C   0  0  0  0  0  0  0  0  0  0  0  0
    1.2990    0.7500    0.0000 C   0  0  0  0  0  0  0  0  0  0  0  0
    2.5981   -0.0000    0.0000 C   0  0  0  0  0  0  0  0  0  0  0  0
    3.8971    0.7500    0.0000 C   0  0  0  0  0  0  0  0  0  0  0  0
    5.1962   -0.0000    0.0000 C   0  0  0  0  0  0  0  0  0  0  0  0
    5.1962   -1.5000    0.0000 N   0  0  0  0  0  0  0  0  0  0  0  0
    6.4952    0.7500    0.0000 C   0  0  0  0  0  0  0  0  0  0  0  0
    7.7942   -0.0000    0.0000 C   0  0  0  0  0  0  0  0  0  0  0  0
  1  2  2  0
  2  3  1  0
  3  4  1  0
  4  5  1  0
  5  6  1  0
  5  7  1  0
  7  8  1  0
M  END
>  <Title>  (109) 
idAACGgen14

$$$$

     RDKit          2D

 35 39  0  0  0  0  0  0  0  0999 V2000
   -3.1476   -2.1380    0.0000 C   0  0  0  0  0  0  0  0  0  0  0  0
   -1.6852   -2.4718    0.0000 C   0  0  0  0  0  0  0  0  0  0  0  0
   -1.3515   -3.9342    0.0000 C   0  0  0  0  0  0  0  0  0  0  0  0
   -0.0000   -4.5850    0.0000 C   0  0  0  0  0  0  0  0  0  0  0  0
    1.3515   -3.9342    0.0000 C   0  0  0  0  0  0  0  0  0  0  0  0
    1.6852   -2.4718    0.0000 C   0  0  0  0  0  0  0  0  0  0  0  0
    3.1476   -2.1380    0.0000 C   0  0  0  0  0  0  0  0  0  0  0  0
    3.5898   -0.7046    0.0000 O   0  0  0  0  0  0  0  0  0  0  0  0
    4.1679   -3.2376    0.0000 N   0  0  0  0  0  0  0  0  0  0  0  0
    5.6303   -2.9038    0.0000 C   0  0  0  0  0  0  0  0  0  0  0  0
    6.2198   -1.5245    0.0000 N   0  0  0  0  0  0  0  0  0  0  0  0
    7.7138   -1.6590    0.0000 N   0  0  0  0  0  0  0  0  0  0  0  0
    8.0476   -3.1214    0.0000 N   0  0  0  0  0  0  0  0  0  0  0  0
    6.7599   -3.8907    0.0000 N   0  0  0  0  0  0  0  0  0  0  0  0
    6.6254   -5.3847    0.0000 C   0  0  0  0  0  0  0  0  0  0  0  0
    7.7550   -6.3716    0.0000 C   0  0  0  0  0  0  0  0  0  0  0  0
    7.1655   -7.7509    0.0000 C   0  0  0  0  0  0  0  0  0  0  0  0
    5.6715   -7.6164    0.0000 C   0  0  0  0  0  0  0  0  0  0  0  0
    4.6846   -8.7460    0.0000 C   0  0  0  0  0  0  0  0  0  0  0  0
    5.1694  -10.1655    0.0000 O   0  0  0  0  0  0  0  0  0  0  0  0
    3.2129   -8.4561    0.0000 N   0  0  0  0  0  0  0  0  0  0  0  0
    2.2260   -9.5857    0.0000 C   0  0  0  0  0  0  0  0  0  0  0  0
    0.7543   -9.2959    0.0000 N   0  0  0  0  0  0  0  0  0  0  0  0
   -0.2326  -10.4255    0.0000 N   0  0  0  0  0  0  0  0  0  0  0  0
    0.2522  -11.8450    0.0000 N   0  0  0  0  0  0  0  0  0  0  0  0
    1.7239  -12.1348    0.0000 N   0  0  0  0  0  0  0  0  0  0  0  0
    2.7108  -11.0052    0.0000 N   0  0  0  0  0  0  0  0  0  0  0  0
    5.3378   -6.1540    0.0000 C   0  0  0  0  0  0  0  0  0  0  0  0
    3.9585   -5.5645    0.0000 O   0  0  0  0  0  0  0  0  0  0  0  0
    0.7500   -1.2990    0.0000 C   0  0  0  0  0  0  0  0  0  0  0  0
    1.5000    0.0000    0.0000 C   0  0  0  0  0  0  0  0  0  0  0  0
    0.7500    1.2990    0.0000 C   0  0  0  0  0  0  0  0  0  0  0  0
   -0.7500    1.2990    0.0000 C   0  0  0  0  0  0  0  0  0  0  0  0
   -1.5000    0.0000    0.0000 C   0  0  0  0  0  0  0  0  0  0  0  0
   -0.7500   -1.2990    0.0000 C   0  0  0  0  0  0  0  0  0  0  0  0
  1  2  1  0
  2  3  2  0
  3  4  1  0
  4  5  1  0
  5  6  1  0
  6  7  1  0
  7  8  2  0
  7  9  1  0
  9 10  1  0
 10 11  2  0
 11 12  1  0
 12 13  2  0
 13 14  1  0
 14 15  1  0
 15 16  2  0
 16 17  1  0
 17 18  2  0
 18 19  1  0
 19 20  2  0
 19 21  1  0
 21 22  1  0
 22 23  2  0
 23 24  1  0
 24 25  2  0
 25 26  1  0
 26 27  2  0
 18 28  1  0
 28 29  2  0
  6 30  1  0
 30 31  2  0
 31 32  1  0
 32 33  2  0
 33 34  1  0
 34 35  2  0
 35  2  1  0
 14 10  1  0
 28 15  1  0
 35 30  1  0
 27 22  1  0
M  END
>  <Title>  (110) 
idAACHgen14

$$$$

     RDKit          2D

 39 43  0  0  0  0  0  0  0  0999 V2000
   -4.5823   -1.2116    0.0000 N   0  0  0  0  0  0  0  0  0  0  0  0
   -3.1965   -1.7857    0.0000 C   0  0  0  0  0  0  0  0  0  0  0  0
   -1.8107   -2.3597    0.0000 C   0  0  0  0  0  0  0  0  0  0  0  0
   -1.8107   -3.8597    0.0000 C   0  0  0  0  0  0  0  0  0  0  0  0
   -0.7500   -4.9204    0.0000 C   0  0  0  0  0  0  0  0  0  0  0  0
    0.7500   -4.9204    0.0000 C   0  0  0  0  0  0  0  0  0  0  0  0
    1.3240   -6.3062    0.0000 C   0  0  0  0  0  0  0  0  0  0  0  0
    2.8112   -6.5020    0.0000 O   0  0  0  0  0  0  0  0  0  0  0  0
    0.4109   -7.4962    0.0000 N   0  0  0  0  0  0  0  0  0  0  0  0
    0.9849   -8.8820    0.0000 C   0  0  0  0  0  0  0  0  0  0  0  0
    2.4435   -9.2322    0.0000 N   0  0  0  0  0  0  0  0  0  0  0  0
    2.5612  -10.7276    0.0000 N   0  0  0  0  0  0  0  0  0  0  0  0
    1.1753  -11.3016    0.0000 N   0  0  0  0  0  0  0  0  0  0  0  0
    0.2012  -10.1610    0.0000 N   0  0  0  0  0  0  0  0  0  0  0  0
   -1.2942  -10.2787    0.0000 N   0  0  0  0  0  0  0  0  0  0  0  0
   -2.0780  -11.5576    0.0000 C   0  0  0  0  0  0  0  0  0  0  0  0
   -3.5365  -11.2075    0.0000 C   0  0  0  0  0  0  0  0  0  0  0  0
   -3.6542   -9.7121    0.0000 N   0  0  0  0  0  0  0  0  0  0  0  0
   -4.9332   -8.9283    0.0000 C   0  0  0  0  0  0  0  0  0  0  0  0
   -6.2514   -9.6441    0.0000 O   0  0  0  0  0  0  0  0  0  0  0  0
   -4.8939   -7.4289    0.0000 N   0  0  0  0  0  0  0  0  0  0  0  0
   -6.1729   -6.6451    0.0000 C   0  0  0  0  0  0  0  0  0  0  0  0
   -6.1336   -5.1456    0.0000 N   0  0  0  0  0  0  0  0  0  0  0  0
   -7.4126   -4.3619    0.0000 N   0  0  0  0  0  0  0  0  0  0  0  0
   -8.7308   -5.0776    0.0000 N   0  0  0  0  0  0  0  0  0  0  0  0
   -8.7700   -6.5771    0.0000 N   0  0  0  0  0  0  0  0  0  0  0  0
   -7.4911   -7.3608    0.0000 N   0  0  0  0  0  0  0  0  0  0  0  0
   -2.2684   -9.1381    0.0000 C   0  0  0  0  0  0  0  0  0  0  0  0
   -1.9182   -7.6795    0.0000 O   0  0  0  0  0  0  0  0  0  0  0  0
    1.8107   -3.8597    0.0000 C   0  0  0  0  0  0  0  0  0  0  0  0
    3.1965   -4.4337    0.0000 O   0  0  0  0  0  0  0  0  0  0  0  0
    1.8107   -2.3597    0.0000 O   0  0  0  0  0  0  0  0  0  0  0  0
    0.7500   -1.2990    0.0000 C   0  0  0  0  0  0  0  0  0  0  0  0
    1.5000    0.0000    0.0000 C   0  0  0  0  0  0  0  0  0  0  0  0
    0.7500    1.2990    0.0000 C   0  0  0  0  0  0  0  0  0  0  0  0
   -0.7500    1.2990    0.0000 C   0  0  0  0  0  0  0  0  0  0  0  0
   -1.5000    2.5981    0.0000 O   0  0  0  0  0  0  0  0  0  0  0  0
   -1.5000    0.0000    0.0000 C   0  0  0  0  0  0  0  0  0  0  0  0
   -0.7500   -1.2990    0.0000 C   0  0  0  0  0  0  0  0  0  0  0  0
  1  2  3  0
  2  3  1  0
  3  4  2  0
  4  5  1  0
  5  6  2  0
  6  7  1  0
  7  8  2  0
  7  9  1  0
  9 10  1  0
 10 11  2  0
 11 12  1  0
 12 13  2  0
 13 14  1  0
 14 15  1  0
 15 16  1  0
 16 17  1  0
 17 18  1  0
 18 19  1  0
 19 20  2  0
 19 21  1  0
 21 22  1  0
 22 23  2  0
 23 24  1  0
 24 25  2  0
 25 26  1  0
 26 27  2  0
 18 28  1  0
 28 29  2  0
  6 30  1  0
 30 31  2  0
 30 32  1  0
 32 33  1  0
 33 34  2  0
 34 35  1  0
 35 36  2  0
 36 37  1  0
 36 38  1  0
 38 39  2  0
 39  3  1  0
 14 10  1  0
 28 15  1  0
 39 33  1  0
 27 22  1  0
M  END
>  <Title>  (111) 
idAACIgen14

$$$$

     RDKit          2D

 96 96  0  0  0  0  0  0  0  0999 V2000
   24.1837    0.0000    0.0000 C   0  0  0  0  0  0  0  0  0  0  0  0
   22.6837    0.0000    0.0000 C   0  0  0  0  0  0  0  0  0  0  0  0
   22.6341    1.4992    0.0000 C   0  0  0  0  0  0  0  0  0  0  0  0
   22.4856    2.9918    0.0000 C   0  0  0  0  0  0  0  0  0  0  0  0
   22.2387    4.4713    0.0000 C   0  0  0  0  0  0  0  0  0  0  0  0
   21.8945    5.9313    0.0000 C   0  0  0  0  0  0  0  0  0  0  0  0
   21.4546    7.3654    0.0000 C   0  0  0  0  0  0  0  0  0  0  0  0
   20.9210    8.7672    0.0000 C   0  0  0  0  0  0  0  0  0  0  0  0
   20.2958   10.1307    0.0000 C   0  0  0  0  0  0  0  0  0  0  0  0
   19.5819   11.4500    0.0000 C   0  0  0  0  0  0  0  0  0  0  0  0
   18.7823   12.7191    0.0000 C   0  0  0  0  0  0  0  0  0  0  0  0
   17.9006   13.9326    0.0000 C   0  0  0  0  0  0  0  0  0  0  0  0
   16.9407   15.0852    0.0000 C   0  0  0  0  0  0  0  0  0  0  0  0
   15.9067   16.1719    0.0000 C   0  0  0  0  0  0  0  0  0  0  0  0
   14.8031   17.1878    0.0000 C   0  0  0  0  0  0  0  0  0  0  0  0
   13.6348   18.1286    0.0000 C   0  0  0  0  0  0  0  0  0  0  0  0
   12.4068   18.9900    0.0000 C   0  0  0  0  0  0  0  0  0  0  0  0
   11.1246   19.7685    0.0000 C   0  0  0  0  0  0  0  0  0  0  0  0
    9.7938   20.4605    0.0000 C   0  0  0  0  0  0  0  0  0  0  0  0
    8.4201   21.0631    0.0000 C   0  0  0  0  0  0  0  0  0  0  0  0
    7.0097   21.5735    0.0000 C   0  0  0  0  0  0  0  0  0  0  0  0
    5.5685   21.9896    0.0000 C   0  0  0  0  0  0  0  0  0  0  0  0
    4.1030   22.3095    0.0000 C   0  0  0  0  0  0  0  0  0  0  0  0
    2.6196   22.5319    0.0000 C   0  0  0  0  0  0  0  0  0  0  0  0
    1.1247   22.6558    0.0000 C   0  0  0  0  0  0  0  0  0  0  0  0
   -0.3751   22.6806    0.0000 C   0  0  0  0  0  0  0  0  0  0  0  0
   -1.8732   22.6062    0.0000 C   0  0  0  0  0  0  0  0  0  0  0  0
   -3.3632   22.4330    0.0000 C   0  0  0  0  0  0  0  0  0  0  0  0
   -4.8384   22.1617    0.0000 C   0  0  0  0  0  0  0  0  0  0  0  0
   -6.2925   21.7935    0.0000 C   0  0  0  0  0  0  0  0  0  0  0  0
   -7.7191   21.3299    0.0000 C   0  0  0  0  0  0  0  0  0  0  0  0
   -9.1119   20.7731    0.0000 C   0  0  0  0  0  0  0  0  0  0  0  0
  -10.4649   20.1255    0.0000 C   0  0  0  0  0  0  0  0  0  0  0  0
  -11.7722   19.3899    0.0000 C   0  0  0  0  0  0  0  0  0  0  0  0
  -13.0279   18.5695    0.0000 C   0  0  0  0  0  0  0  0  0  0  0  0
  -14.2267   17.6678    0.0000 C   0  0  0  0  0  0  0  0  0  0  0  0
  -15.3633   16.6890    0.0000 C   0  0  0  0  0  0  0  0  0  0  0  0
  -16.4327   15.6371    0.0000 C   0  0  0  0  0  0  0  0  0  0  0  0
  -17.4302   14.5169    0.0000 C   0  0  0  0  0  0  0  0  0  0  0  0
  -18.3515   13.3332    0.0000 C   0  0  0  0  0  0  0  0  0  0  0  0
  -19.1926   12.0911    0.0000 C   0  0  0  0  0  0  0  0  0  0  0  0
  -19.9497   10.7963    0.0000 C   0  0  0  0  0  0  0  0  0  0  0  0
  -20.6196    9.4542    0.0000 C   0  0  0  0  0  0  0  0  0  0  0  0
  -21.1994    8.0707    0.0000 C   0  0  0  0  0  0  0  0  0  0  0  0
  -21.6864    6.6520    0.0000 C   0  0  0  0  0  0  0  0  0  0  0  0
  -22.0787    5.2042    0.0000 C   0  0  0  0  0  0  0  0  0  0  0  0
  -22.3743    3.7336    0.0000 C   0  0  0  0  0  0  0  0  0  0  0  0
  -22.5722    2.2467    0.0000 C   0  0  0  0  0  0  0  0  0  0  0  0
  -22.6713    0.7500    0.0000 C   0  0  0  0  0  0  0  0  0  0  0  0
  -22.6713   -0.7500    0.0000 C   0  0  0  0  0  0  0  0  0  0  0  0
  -22.5722   -2.2467    0.0000 C   0  0  0  0  0  0  0  0  0  0  0  0
  -22.3743   -3.7336    0.0000 C   0  0  0  0  0  0  0  0  0  0  0  0
  -22.0787   -5.2042    0.0000 C   0  0  0  0  0  0  0  0  0  0  0  0
  -21.6864   -6.6520    0.0000 C   0  0  0  0  0  0  0  0  0  0  0  0
  -21.1994   -8.0707    0.0000 C   0  0  0  0  0  0  0  0  0  0  0  0
  -20.6196   -9.4542    0.0000 C   0  0  0  0  0  0  0  0  0  0  0  0
  -19.9497  -10.7963    0.0000 C   0  0  0  0  0  0  0  0  0  0  0  0
  -19.1926  -12.0911    0.0000 C   0  0  0  0  0  0  0  0  0  0  0  0
  -18.3515  -13.3332    0.0000 C   0  0  0  0  0  0  0  0  0  0  0  0
  -17.4302  -14.5169    0.0000 C   0  0  0  0  0  0  0  0  0  0  0  0
  -16.4327  -15.6371    0.0000 C   0  0  0  0  0  0  0  0  0  0  0  0
  -15.3633  -16.6890    0.0000 C   0  0  0  0  0  0  0  0  0  0  0  0
  -14.2267  -17.6678    0.0000 C   0  0  0  0  0  0  0  0  0  0  0  0
  -13.0279  -18.5695    0.0000 C   0  0  0  0  0  0  0  0  0  0  0  0
  -11.7722  -19.3899    0.0000 C   0  0  0  0  0  0  0  0  0  0  0  0
  -10.4649  -20.1255    0.0000 C   0  0  0  0  0  0  0  0  0  0  0  0
   -9.1119  -20.7731    0.0000 C   0  0  0  0  0  0  0  0  0  0  0  0
   -7.7191  -21.3299    0.0000 C   0  0  0  0  0  0  0  0  0  0  0  0
   -6.2925  -21.7935    0.0000 C   0  0  0  0  0  0  0  0  0  0  0  0
   -4.8384  -22.1617    0.0000 C   0  0  0  0  0  0  0  0  0  0  0  0
   -3.3632  -22.4330    0.0000 C   0  0  0  0  0  0  0  0  0  0  0  0
   -1.8732  -22.6062    0.0000 C   0  0  0  0  0  0  0  0  0  0  0  0
   -0.3751  -22.6806    0.0000 C   0  0  0  0  0  0  0  0  0  0  0  0
    1.1247  -22.6558    0.0000 C   0  0  0  0  0  0  0  0  0  0  0  0
    2.6196  -22.5319    0.0000 C   0  0  0  0  0  0  0  0  0  0  0  0
    4.1030  -22.3095    0.0000 C   0  0  0  0  0  0  0  0  0  0  0  0
    5.5685  -21.9896    0.0000 C   0  0  0  0  0  0  0  0  0  0  0  0
    7.0097  -21.5735    0.0000 C   0  0  0  0  0  0  0  0  0  0  0  0
    8.4201  -21.0631    0.0000 C   0  0  0  0  0  0  0  0  0  0  0  0
    9.7938  -20.4605    0.0000 C   0  0  0  0  0  0  0  0  0  0  0  0
   11.1246  -19.7685    0.0000 C   0  0  0  0  0  0  0  0  0  0  0  0
   12.4068  -18.9900    0.0000 C   0  0  0  0  0  0  0  0  0  0  0  0
   13.6348  -18.1286    0.0000 C   0  0  0  0  0  0  0  0  0  0  0  0
   14.8031  -17.1878    0.0000 C   0  0  0  0  0  0  0  0  0  0  0  0
   15.9067  -16.1719    0.0000 C   0  0  0  0  0  0  0  0  0  0  0  0
   16.9407  -15.0852    0.0000 C   0  0  0  0  0  0  0  0  0  0  0  0
   17.9006  -13.9326    0.0000 C   0  0  0  0  0  0  0  0  0  0  0  0
   18.7823  -12.7191    0.0000 C   0  0  0  0  0  0  0  0  0  0  0  0
   19.5819  -11.4500    0.0000 C   0  0  0  0  0  0  0  0  0  0  0  0
   20.2958  -10.1307    0.0000 C   0  0  0  0  0  0  0  0  0  0  0  0
   20.9210   -8.7672    0.0000 C   0  0  0  0  0  0  0  0  0  0  0  0
   21.4546   -7.3654    0.0000 C   0  0  0  0  0  0  0  0  0  0  0  0
   21.8945   -5.9313    0.0000 C   0  0  0  0  0  0  0  0  0  0  0  0
   22.2387   -4.4713    0.0000 C   0  0  0  0  0  0  0  0  0  0  0  0
   22.4856   -2.9918    0.0000 C   0  0  0  0  0  0  0  0  0  0  0  0
   22.6341   -1.4992    0.0000 C   0  0  0  0  0  0  0  0  0  0  0  0
  1  2  1  0
  2  3  1  0
  3  4  2  0
  4  5  1  0
  5  6  2  0
  6  7  1  0
  7  8  2  0
  8  9  1  0
  9 10  2  0
 10 11  1  0
 11 12  2  0
 12 13  1  0
 13 14  2  0
 14 15  1  0
 15 16  2  0
 16 17  1  0
 17 18  2  0
 18 19  1  0
 19 20  2  0
 20 21  1  0
 21 22  2  0
 22 23  1  0
 23 24  2  0
 24 25  1  0
 25 26  2  0
 26 27  1  0
 27 28  2  0
 28 29  1  0
 29 30  2  0
 30 31  1  0
 31 32  2  0
 32 33  1  0
 33 34  2  0
 34 35  1  0
 35 36  2  0
 36 37  1  0
 37 38  2  0
 38 39  1  0
 39 40  2  0
 40 41  1  0
 41 42  2  0
 42 43  1  0
 43 44  2  0
 44 45  1  0
 45 46  2  0
 46 47  1  0
 47 48  2  0
 48 49  1  0
 49 50  2  0
 50 51  1  0
 51 52  2  0
 52 53  1  0
 53 54  2  0
 54 55  1  0
 55 56  2  0
 56 57  1  0
 57 58  2  0
 58 59  1  0
 59 60  2  0
 60 61  1  0
 61 62  2  0
 62 63  1  0
 63 64  1  0
 64 65  1  0
 65 66  1  0
 66 67  1  0
 67 68  1  0
 68 69  1  0
 69 70  1  0
 70 71  1  0
 71 72  1  0
 72 73  1  0
 73 74  1  0
 74 75  1  0
 75 76  1  0
 76 77  1  0
 77 78  1  0
 78 79  1  0
 79 80  1  0
 80 81  1  0
 81 82  1  0
 82 83  1  0
 83 84  1  0
 84 85  1  0
 85 86  1  0
 86 87  1  0
 87 88  1  0
 88 89  1  0
 89 90  1  0
 90 91  1  0
 91 92  1  0
 92 93  1  0
 93 94  1  0
 94 95  1  0
 95 96  1  0
 96  2  1  0
M  END
>  <Title>  (112) 
idAACJgen14

$$$$

     RDKit          2D

 37 41  0  0  0  0  0  0  0  0999 V2000
   -3.1981   -1.5132    0.0000 C   0  0  0  0  0  0  0  0  0  0  0  0
   -1.8991   -2.2632    0.0000 C   0  0  0  0  0  0  0  0  0  0  0  0
   -2.1595   -3.7404    0.0000 C   0  0  0  0  0  0  0  0  0  0  0  0
   -1.4095   -5.0395    0.0000 C   0  0  0  0  0  0  0  0  0  0  0  0
   -0.0000   -5.5525    0.0000 C   0  0  0  0  0  0  0  0  0  0  0  0
    1.4095   -5.0395    0.0000 C   0  0  0  0  0  0  0  0  0  0  0  0
    2.1595   -3.7404    0.0000 C   0  0  0  0  0  0  0  0  0  0  0  0
    1.8991   -2.2632    0.0000 C   0  0  0  0  0  0  0  0  0  0  0  0
    3.1981   -1.5132    0.0000 C   0  0  0  0  0  0  0  0  0  0  0  0
    3.1981   -0.0132    0.0000 O   0  0  0  0  0  0  0  0  0  0  0  0
    4.4971   -2.2632    0.0000 N   0  0  0  0  0  0  0  0  0  0  0  0
    5.7962   -1.5132    0.0000 C   0  0  0  0  0  0  0  0  0  0  0  0
    5.9530   -0.0214    0.0000 N   0  0  0  0  0  0  0  0  0  0  0  0
    7.4202    0.2904    0.0000 N   0  0  0  0  0  0  0  0  0  0  0  0
    8.1702   -1.0086    0.0000 N   0  0  0  0  0  0  0  0  0  0  0  0
    7.1665   -2.1233    0.0000 N   0  0  0  0  0  0  0  0  0  0  0  0
    7.4784   -3.5905    0.0000 C   0  0  0  0  0  0  0  0  0  0  0  0
    8.8487   -4.2007    0.0000 C   0  0  0  0  0  0  0  0  0  0  0  0
    8.6919   -5.6924    0.0000 C   0  0  0  0  0  0  0  0  0  0  0  0
    7.2247   -6.0043    0.0000 C   0  0  0  0  0  0  0  0  0  0  0  0
    6.6146   -7.3746    0.0000 C   0  0  0  0  0  0  0  0  0  0  0  0
    7.4962   -8.5881    0.0000 O   0  0  0  0  0  0  0  0  0  0  0  0
    5.1228   -7.5314    0.0000 N   0  0  0  0  0  0  0  0  0  0  0  0
    4.5127   -8.9017    0.0000 C   0  0  0  0  0  0  0  0  0  0  0  0
    3.0209   -9.0585    0.0000 N   0  0  0  0  0  0  0  0  0  0  0  0
    2.4108  -10.4288    0.0000 N   0  0  0  0  0  0  0  0  0  0  0  0
    3.2925  -11.6424    0.0000 N   0  0  0  0  0  0  0  0  0  0  0  0
    4.7843  -11.4856    0.0000 N   0  0  0  0  0  0  0  0  0  0  0  0
    5.3944  -10.1153    0.0000 N   0  0  0  0  0  0  0  0  0  0  0  0
    6.4747   -4.7053    0.0000 C   0  0  0  0  0  0  0  0  0  0  0  0
    4.9829   -4.5485    0.0000 O   0  0  0  0  0  0  0  0  0  0  0  0
    0.7500   -1.2990    0.0000 C   0  0  0  0  0  0  0  0  0  0  0  0
    1.5000    0.0000    0.0000 C   0  0  0  0  0  0  0  0  0  0  0  0
    0.7500    1.2990    0.0000 C   0  0  0  0  0  0  0  0  0  0  0  0
   -0.7500    1.2990    0.0000 C   0  0  0  0  0  0  0  0  0  0  0  0
   -1.5000    0.0000    0.0000 C   0  0  0  0  0  0  0  0  0  0  0  0
   -0.7500   -1.2990    0.0000 C   0  0  0  0  0  0  0  0  0  0  0  0
  1  2  1  0
  2  3  1  0
  3  4  1  0
  4  5  1  0
  5  6  1  0
  6  7  1  0
  7  8  1  0
  8  9  1  0
  9 10  2  0
  9 11  1  0
 11 12  1  0
 12 13  2  0
 13 14  1  0
 14 15  2  0
 15 16  1  0
 16 17  1  0
 17 18  2  0
 18 19  1  0
 19 20  2  0
 20 21  1  0
 21 22  2  0
 21 23  1  0
 23 24  1  0
 24 25  2  0
 25 26  1  0
 26 27  2  0
 27 28  1  0
 28 29  2  0
 20 30  1  0
 30 31  2  0
  8 32  1  0
 32 33  2  0
 33 34  1  0
 34 35  2  0
 35 36  1  0
 36 37  2  0
 37  2  1  0
 16 12  1  0
 30 17  1  0
 37 32  1  0
 29 24  1  0
M  END
>  <Title>  (113) 
idAACKgen14

$$$$

     RDKit          2D

 15 15  0  0  0  0  0  0  0  0999 V2000
   10.5000   -5.1962    0.0000 C   0  0  0  0  0  0  0  0  0  0  0  0
    9.7500   -3.8971    0.0000 C   0  0  0  0  0  0  0  0  0  0  0  0
    8.2500   -3.8971    0.0000 C   0  0  0  0  0  0  0  0  0  0  0  0
    7.5000   -2.5981    0.0000 N   0  0  0  0  0  0  0  0  0  0  0  0
    6.0000   -2.5981    0.0000 C   0  0  0  0  0  0  0  0  0  0  0  0
    5.2500   -3.8971    0.0000 O   0  0  0  0  0  0  0  0  0  0  0  0
    5.2500   -1.2990    0.0000 C   0  0  0  0  0  0  0  0  0  0  0  0
    3.7500   -1.2990    0.0000 C   0  0  0  0  0  0  0  0  0  0  0  0
    3.0000    0.0000    0.0000 C   0  0  0  0  0  0  0  0  0  0  0  0
    1.5000    0.0000    0.0000 C   0  0  0  0  0  0  0  0  0  0  0  0
    0.7500   -1.2990    0.0000 C   0  0  0  0  0  0  0  0  0  0  0  0
   -0.7500   -1.2990    0.0000 C   0  0  0  0  0  0  0  0  0  0  0  0
   -1.5000    0.0000    0.0000 C   0  0  0  0  0  0  0  0  0  0  0  0
   -0.7500    1.2990    0.0000 N   0  0  0  0  0  0  0  0  0  0  0  0
    0.7500    1.2990    0.0000 C   0  0  0  0  0  0  0  0  0  0  0  0
  1  2  1  0
  2  3  1  0
  3  4  1  0
  4  5  1  0
  5  6  2  0
  5  7  1  0
  7  8  1  0
  8  9  1  0
  9 10  1  0
 10 11  2  0
 11 12  1  0
 12 13  2  0
 13 14  1  0
 14 15  2  0
 15 10  1  0
M  END
>  <Title>  (114) 
idAACLgen14

$$$$

     RDKit          2D

 34 38  0  0  0  0  0  0  0  0999 V2000
   -2.6401   -3.1891    0.0000 C   0  0  0  0  0  0  0  0  0  0  0  0
   -1.2135   -2.7256    0.0000 C   0  0  0  0  0  0  0  0  0  0  0  0
   -0.0000   -3.6073    0.0000 C   0  0  0  0  0  0  0  0  0  0  0  0
    1.2135   -2.7256    0.0000 C   0  0  0  0  0  0  0  0  0  0  0  0
    2.6401   -3.1891    0.0000 C   0  0  0  0  0  0  0  0  0  0  0  0
    3.7548   -2.1855    0.0000 O   0  0  0  0  0  0  0  0  0  0  0  0
    2.9520   -4.6564    0.0000 N   0  0  0  0  0  0  0  0  0  0  0  0
    4.3786   -5.1199    0.0000 C   0  0  0  0  0  0  0  0  0  0  0  0
    5.5921   -4.2382    0.0000 N   0  0  0  0  0  0  0  0  0  0  0  0
    6.8056   -5.1199    0.0000 N   0  0  0  0  0  0  0  0  0  0  0  0
    6.3421   -6.5465    0.0000 N   0  0  0  0  0  0  0  0  0  0  0  0
    4.8421   -6.5465    0.0000 N   0  0  0  0  0  0  0  0  0  0  0  0
    3.9604   -7.7600    0.0000 C   0  0  0  0  0  0  0  0  0  0  0  0
    4.4239   -9.1866    0.0000 C   0  0  0  0  0  0  0  0  0  0  0  0
    3.2104  -10.0683    0.0000 C   0  0  0  0  0  0  0  0  0  0  0  0
    1.9969   -9.1866    0.0000 C   0  0  0  0  0  0  0  0  0  0  0  0
    0.5703   -9.6501    0.0000 C   0  0  0  0  0  0  0  0  0  0  0  0
    0.2584  -11.1173    0.0000 O   0  0  0  0  0  0  0  0  0  0  0  0
   -0.5444   -8.6464    0.0000 N   0  0  0  0  0  0  0  0  0  0  0  0
   -1.9710   -9.1099    0.0000 C   0  0  0  0  0  0  0  0  0  0  0  0
   -3.0857   -8.1062    0.0000 N   0  0  0  0  0  0  0  0  0  0  0  0
   -4.5123   -8.5698    0.0000 N   0  0  0  0  0  0  0  0  0  0  0  0
   -4.8242  -10.0370    0.0000 N   0  0  0  0  0  0  0  0  0  0  0  0
   -3.7095  -11.0407    0.0000 N   0  0  0  0  0  0  0  0  0  0  0  0
   -2.2829  -10.5772    0.0000 N   0  0  0  0  0  0  0  0  0  0  0  0
    2.4604   -7.7600    0.0000 C   0  0  0  0  0  0  0  0  0  0  0  0
    1.5787   -6.5465    0.0000 O   0  0  0  0  0  0  0  0  0  0  0  0
    0.7500   -1.2990    0.0000 C   0  0  0  0  0  0  0  0  0  0  0  0
    1.5000    0.0000    0.0000 C   0  0  0  0  0  0  0  0  0  0  0  0
    0.7500    1.2990    0.0000 C   0  0  0  0  0  0  0  0  0  0  0  0
   -0.7500    1.2990    0.0000 C   0  0  0  0  0  0  0  0  0  0  0  0
   -1.5000    2.5981    0.0000 O   0  0  0  0  0  0  0  0  0  0  0  0
   -1.5000    0.0000    0.0000 C   0  0  0  0  0  0  0  0  0  0  0  0
   -0.7500   -1.2990    0.0000 C   0  0  0  0  0  0  0  0  0  0  0  0
  1  2  1  0
  2  3  2  0
  3  4  1  0
  4  5  1  0
  5  6  2  0
  5  7  1  0
  7  8  1  0
  8  9  2  0
  9 10  1  0
 10 11  2  0
 11 12  1  0
 12 13  1  0
 13 14  2  0
 14 15  1  0
 15 16  2  0
 16 17  1  0
 17 18  2  0
 17 19  1  0
 19 20  1  0
 20 21  2  0
 21 22  1  0
 22 23  2  0
 23 24  1  0
 24 25  2  0
 16 26  1  0
 26 27  2  0
  4 28  1  0
 28 29  2  0
 29 30  1  0
 30 31  2  0
 31 32  1  0
 31 33  1  0
 33 34  2  0
 34  2  1  0
 12  8  1  0
 26 13  1  0
 34 28  1  0
 25 20  1  0
M  END
>  <Title>  (115) 
idAACMgen14

$$$$

     RDKit          2D

 29 28  0  0  0  0  0  0  0  0999 V2000
    0.0000    0.0000    0.0000 C   0  0  0  0  0  0  0  0  0  0  0  0
   -0.0000   -1.5000    0.0000 C   0  0  0  0  0  0  0  0  0  0  0  0
   -0.0000   -3.0000    0.0000 C   0  0  0  0  0  0  0  0  0  0  0  0
   -0.0000   -4.5000    0.0000 C   0  0  0  0  0  0  0  0  0  0  0  0
   -0.0000   -6.0000    0.0000 C   0  0  0  0  0  0  0  0  0  0  0  0
   -0.0000   -7.5000    0.0000 C   0  0  0  0  0  0  0  0  0  0  0  0
   -0.0000   -9.0000    0.0000 C   0  0  0  0  0  0  0  0  0  0  0  0
   -0.0000  -10.5000    0.0000 C   0  0  0  0  0  0  0  0  0  0  0  0
   -0.0000  -12.0000    0.0000 C   0  0  0  0  0  0  0  0  0  0  0  0
   -0.0000  -13.5000    0.0000 C   0  0  0  0  0  0  0  0  0  0  0  0
   -0.0000  -15.0000    0.0000 C   0  0  0  0  0  0  0  0  0  0  0  0
   -0.0000  -16.5000    0.0000 C   0  0  0  0  0  0  0  0  0  0  0  0
   -0.0000  -18.0000    0.0000 C   0  0  0  0  0  0  0  0  0  0  0  0
   -0.0000  -19.5000    0.0000 C   0  0  0  0  0  0  0  0  0  0  0  0
   -0.0000  -21.0000    0.0000 C   0  0  0  0  0  0  0  0  0  0  0  0
   -0.0000  -22.5000    0.0000 C   0  0  0  0  0  0  0  0  0  0  0  0
   -0.0000  -24.0000    0.0000 C   0  0  0  0  0  0  0  0  0  0  0  0
   -0.0000  -25.5000    0.0000 C   0  0  0  0  0  0  0  0  0  0  0  0
   -0.0000  -27.0000    0.0000 C   0  0  0  0  0  0  0  0  0  0  0  0
   -0.0000  -28.5000    0.0000 C   0  0  0  0  0  0  0  0  0  0  0  0
   -0.0000  -30.0000    0.0000 C   0  0  0  0  0  0  0  0  0  0  0  0
   -0.0000  -31.5000    0.0000 C   0  0  0  0  0  0  0  0  0  0  0  0
   -0.0000  -33.0000    0.0000 C   0  0  0  0  0  0  0  0  0  0  0  0
   -0.0000  -34.5000    0.0000 C   0  0  0  0  0  0  0  0  0  0  0  0
   -0.0000  -36.0000    0.0000 C   0  0  0  0  0  0  0  0  0  0  0  0
   -0.0000  -37.5000    0.0000 C   0  0  0  0  0  0  0  0  0  0  0  0
   -0.0000  -39.0000    0.0000 C   0  0  0  0  0  0  0  0  0  0  0  0
    1.2990  -39.7500    0.0000 C   0  0  0  0  0  0  0  0  0  0  0  0
   -1.2990  -39.7500    0.0000 C   0  0  0  0  0  0  0  0  0  0  0  0
  1  2  3  0
  2  3  1  0
  3  4  3  0
  4  5  1  0
  5  6  3  0
  6  7  1  0
  7  8  3  0
  8  9  1  0
  9 10  3  0
 10 11  1  0
 11 12  3  0
 12 13  1  0
 13 14  3  0
 14 15  1  0
 15 16  3  0
 16 17  1  0
 17 18  3  0
 18 19  1  0
 19 20  3  0
 20 21  1  0
 21 22  3  0
 22 23  1  0
 23 24  3  0
 24 25  1  0
 25 26  3  0
 26 27  1  0
 27 28  1  0
 27 29  1  0
M  END
>  <Title>  (116) 
idAACNgen14

$$$$

     RDKit          2D

 38 41  0  0  0  0  0  0  0  0999 V2000
   -5.1337  -12.1543    0.0000 C   0  0  0  0  0  0  0  0  0  0  0  0
   -5.2905  -10.6625    0.0000 C   0  0  0  0  0  0  0  0  0  0  0  0
   -4.0770   -9.7808    0.0000 C   0  0  0  0  0  0  0  0  0  0  0  0
   -4.2338   -8.2890    0.0000 C   0  0  0  0  0  0  0  0  0  0  0  0
   -5.6041   -7.6789    0.0000 O   0  0  0  0  0  0  0  0  0  0  0  0
   -3.0203   -7.4073    0.0000 N   0  0  0  0  0  0  0  0  0  0  0  0
   -3.1771   -5.9156    0.0000 C   0  0  0  0  0  0  0  0  0  0  0  0
   -1.9635   -5.0339    0.0000 C   0  0  0  0  0  0  0  0  0  0  0  0
   -0.7500   -5.9156    0.0000 C   0  0  0  0  0  0  0  0  0  0  0  0
    0.7500   -5.9156    0.0000 C   0  0  0  0  0  0  0  0  0  0  0  0
    1.9635   -5.0339    0.0000 C   0  0  0  0  0  0  0  0  0  0  0  0
    3.1771   -5.9156    0.0000 O   0  0  0  0  0  0  0  0  0  0  0  0
    3.0203   -7.4073    0.0000 C   0  0  0  0  0  0  0  0  0  0  0  0
    1.6499   -8.0175    0.0000 O   0  0  0  0  0  0  0  0  0  0  0  0
    4.2338   -8.2890    0.0000 C   0  0  0  0  0  0  0  0  0  0  0  0
    4.0770   -9.7808    0.0000 C   0  0  0  0  0  0  0  0  0  0  0  0
    5.2905  -10.6625    0.0000 C   0  0  0  0  0  0  0  0  0  0  0  0
    5.1337  -12.1543    0.0000 C   0  0  0  0  0  0  0  0  0  0  0  0
    6.3472  -13.0359    0.0000 C   0  0  0  0  0  0  0  0  0  0  0  0
    7.7176  -12.4258    0.0000 C   0  0  0  0  0  0  0  0  0  0  0  0
    8.9311  -13.3075    0.0000 O   0  0  0  0  0  0  0  0  0  0  0  0
    7.8744  -10.9341    0.0000 C   0  0  0  0  0  0  0  0  0  0  0  0
    6.6608  -10.0524    0.0000 C   0  0  0  0  0  0  0  0  0  0  0  0
    2.4271   -3.6073    0.0000 N   0  0  0  0  0  0  0  0  0  0  0  0
    1.9635   -2.1807    0.0000 C   0  0  0  0  0  0  0  0  0  0  0  0
    3.1771   -1.2990    0.0000 O   0  0  0  0  0  0  0  0  0  0  0  0
    0.7500   -1.2990    0.0000 C   0  0  0  0  0  0  0  0  0  0  0  0
    1.5000    0.0000    0.0000 C   0  0  0  0  0  0  0  0  0  0  0  0
    0.7500    1.2990    0.0000 C   0  0  0  0  0  0  0  0  0  0  0  0
   -0.7500    1.2990    0.0000 C   0  0  0  0  0  0  0  0  0  0  0  0
   -1.5000    0.0000    0.0000 C   0  0  0  0  0  0  0  0  0  0  0  0
   -0.7500   -1.2990    0.0000 C   0  0  0  0  0  0  0  0  0  0  0  0
   -1.9635   -2.1807    0.0000 C   0  0  0  0  0  0  0  0  0  0  0  0
   -2.9672   -1.0660    0.0000 C   0  0  0  0  0  0  0  0  0  0  0  0
   -4.4344   -1.3779    0.0000 C   0  0  0  0  0  0  0  0  0  0  0  0
   -4.8980   -2.8045    0.0000 C   0  0  0  0  0  0  0  0  0  0  0  0
   -3.8943   -3.9192    0.0000 C   0  0  0  0  0  0  0  0  0  0  0  0
   -2.4271   -3.6073    0.0000 C   0  0  0  0  0  0  0  0  0  0  0  0
  1  2  1  0
  2  3  1  0
  3  4  1  0
  4  5  2  0
  4  6  1  0
  6  7  1  0
  7  8  1  0
  8  9  2  0
  9 10  1  0
 10 11  2  0
 11 12  1  0
 12 13  1  0
 13 14  2  0
 13 15  1  0
 15 16  1  0
 16 17  1  0
 17 18  2  0
 18 19  1  0
 19 20  2  0
 20 21  1  0
 20 22  1  0
 22 23  2  0
 11 24  1  0
 24 25  1  0
 25 26  2  0
 25 27  1  0
 27 28  2  0
 28 29  1  0
 29 30  2  0
 30 31  1  0
 31 32  2  0
 32 33  1  0
 33 34  2  0
 34 35  1  0
 35 36  2  0
 36 37  1  0
 37 38  2  0
 38  8  1  0
 23 17  1  0
 32 27  1  0
 38 33  1  0
M  END
>  <Title>  (117) 
idAACOgen14

$$$$

     RDKit          2D

 42 47  0  0  0  0  0  0  0  0999 V2000
   -1.3240   -6.3062    0.0000 C   0  0  0  0  0  0  0  0  0  0  0  0
   -0.7500   -4.9204    0.0000 C   0  0  0  0  0  0  0  0  0  0  0  0
    0.7500   -4.9204    0.0000 C   0  0  0  0  0  0  0  0  0  0  0  0
    1.8107   -3.8597    0.0000 C   0  0  0  0  0  0  0  0  0  0  0  0
    1.8107   -2.3597    0.0000 C   0  0  0  0  0  0  0  0  0  0  0  0
    3.1965   -1.7857    0.0000 C   0  0  0  0  0  0  0  0  0  0  0  0
    3.3923   -0.2985    0.0000 O   0  0  0  0  0  0  0  0  0  0  0  0
    4.3865   -2.6988    0.0000 N   0  0  0  0  0  0  0  0  0  0  0  0
    5.7723   -2.1248    0.0000 C   0  0  0  0  0  0  0  0  0  0  0  0
    6.1225   -0.6662    0.0000 N   0  0  0  0  0  0  0  0  0  0  0  0
    7.6179   -0.5485    0.0000 N   0  0  0  0  0  0  0  0  0  0  0  0
    8.1919   -1.9344    0.0000 N   0  0  0  0  0  0  0  0  0  0  0  0
    7.0513   -2.9085    0.0000 N   0  0  0  0  0  0  0  0  0  0  0  0
    7.1690   -4.4039    0.0000 N   0  0  0  0  0  0  0  0  0  0  0  0
    8.4479   -5.1877    0.0000 C   0  0  0  0  0  0  0  0  0  0  0  0
    8.0978   -6.6462    0.0000 C   0  0  0  0  0  0  0  0  0  0  0  0
    6.6024   -6.7639    0.0000 N   0  0  0  0  0  0  0  0  0  0  0  0
    5.8186   -8.0429    0.0000 C   0  0  0  0  0  0  0  0  0  0  0  0
    6.5344   -9.3611    0.0000 O   0  0  0  0  0  0  0  0  0  0  0  0
    4.3192   -8.0036    0.0000 N   0  0  0  0  0  0  0  0  0  0  0  0
    3.5354   -9.2826    0.0000 C   0  0  0  0  0  0  0  0  0  0  0  0
    2.0359   -9.2433    0.0000 N   0  0  0  0  0  0  0  0  0  0  0  0
    1.2522  -10.5223    0.0000 N   0  0  0  0  0  0  0  0  0  0  0  0
    1.9679  -11.8405    0.0000 N   0  0  0  0  0  0  0  0  0  0  0  0
    3.4674  -11.8797    0.0000 N   0  0  0  0  0  0  0  0  0  0  0  0
    4.2512  -10.6008    0.0000 N   0  0  0  0  0  0  0  0  0  0  0  0
    6.0284   -5.3781    0.0000 C   0  0  0  0  0  0  0  0  0  0  0  0
    4.5698   -5.0279    0.0000 O   0  0  0  0  0  0  0  0  0  0  0  0
    0.7500   -1.2990    0.0000 C   0  0  0  0  0  0  0  0  0  0  0  0
    1.5000    0.0000    0.0000 C   0  0  0  0  0  0  0  0  0  0  0  0
    0.7500    1.2990    0.0000 C   0  0  0  0  0  0  0  0  0  0  0  0
   -0.7500    1.2990    0.0000 C   0  0  0  0  0  0  0  0  0  0  0  0
   -1.5000    0.0000    0.0000 C   0  0  0  0  0  0  0  0  0  0  0  0
   -0.7500   -1.2990    0.0000 C   0  0  0  0  0  0  0  0  0  0  0  0
   -1.8107   -2.3597    0.0000 C   0  0  0  0  0  0  0  0  0  0  0  0
   -3.1097   -1.6097    0.0000 C   0  0  0  0  0  0  0  0  0  0  0  0
   -4.4087   -2.3597    0.0000 C   0  0  0  0  0  0  0  0  0  0  0  0
   -4.4087   -3.8597    0.0000 C   0  0  0  0  0  0  0  0  0  0  0  0
   -5.7078   -4.6097    0.0000 C   0  0  0  0  0  0  0  0  0  0  0  0
   -7.0068   -5.3597    0.0000 N   0  0  0  0  0  0  0  0  0  0  0  0
   -3.1097   -4.6097    0.0000 C   0  0  0  0  0  0  0  0  0  0  0  0
   -1.8107   -3.8597    0.0000 C   0  0  0  0  0  0  0  0  0  0  0  0
  1  2  1  0
  2  3  1  0
  3  4  1  0
  4  5  1  0
  5  6  1  0
  6  7  2  0
  6  8  1  0
  8  9  1  0
  9 10  2  0
 10 11  1  0
 11 12  2  0
 12 13  1  0
 13 14  1  0
 14 15  1  0
 15 16  1  0
 16 17  1  0
 17 18  1  0
 18 19  2  0
 18 20  1  0
 20 21  1  0
 21 22  2  0
 22 23  1  0
 23 24  2  0
 24 25  1  0
 25 26  2  0
 17 27  1  0
 27 28  2  0
  5 29  1  0
 29 30  2  0
 30 31  1  0
 31 32  2  0
 32 33  1  0
 33 34  2  0
 34 35  1  0
 35 36  2  0
 36 37  1  0
 37 38  2  0
 38 39  1  0
 39 40  3  0
 38 41  1  0
 41 42  2  0
 42  2  1  0
 13  9  1  0
 27 14  1  0
 34 29  1  0
 42 35  1  0
 26 21  1  0
M  END
>  <Title>  (118) 
idAACPgen14

$$$$

     RDKit          2D

 10  9  0  0  0  0  0  0  0  0999 V2000
    0.0000    0.0000    0.0000 C   0  0  0  0  0  0  0  0  0  0  0  0
    1.2990    0.7500    0.0000 C   0  0  0  0  0  0  0  0  0  0  0  0
    2.5981   -0.0000    0.0000 C   0  0  0  0  0  0  0  0  0  0  0  0
    1.2990    2.2500    0.0000 N   0  0  0  0  0  0  0  0  0  0  0  0
    2.5981    3.0000    0.0000 C   0  0  0  0  0  0  0  0  0  0  0  0
    3.8971    2.2500    0.0000 O   0  0  0  0  0  0  0  0  0  0  0  0
    2.5981    4.5000    0.0000 C   0  0  0  0  0  0  0  0  0  0  0  0
    3.8971    5.2500    0.0000 C   0  0  0  0  0  0  0  0  0  0  0  0
    3.8971    6.7500    0.0000 C   0  0  0  0  0  0  0  0  0  0  0  0
    3.8971    8.2500    0.0000 N   0  0  0  0  0  0  0  0  0  0  0  0
  1  2  1  0
  2  3  1  0
  2  4  1  0
  4  5  1  0
  5  6  2  0
  5  7  1  0
  7  8  1  0
  8  9  1  0
  9 10  3  0
M  END
>  <Title>  (119) 
idAACQgen14

$$$$

     RDKit          2D

 11 11  0  0  0  0  0  0  0  0999 V2000
    5.4786   -1.2990    0.0000 C   0  0  0  0  0  0  0  0  0  0  0  0
    3.9786   -1.2990    0.0000 C   0  0  0  0  0  0  0  0  0  0  0  0
    3.2286   -2.5981    0.0000 O   0  0  0  0  0  0  0  0  0  0  0  0
    3.2286   -0.0000    0.0000 N   0  0  0  0  0  0  0  0  0  0  0  0
    1.7286    0.0000    0.0000 C   0  0  0  0  0  0  0  0  0  0  0  0
    1.0777    1.3515    0.0000 C   0  0  0  0  0  0  0  0  0  0  0  0
   -0.3846    1.6852    0.0000 C   0  0  0  0  0  0  0  0  0  0  0  0
   -1.5574    0.7500    0.0000 C   0  0  0  0  0  0  0  0  0  0  0  0
   -1.5574   -0.7500    0.0000 C   0  0  0  0  0  0  0  0  0  0  0  0
   -0.3846   -1.6852    0.0000 C   0  0  0  0  0  0  0  0  0  0  0  0
    1.0777   -1.3515    0.0000 C   0  0  0  0  0  0  0  0  0  0  0  0
  1  2  1  0
  2  3  2  0
  2  4  1  0
  4  5  1  0
  5  6  1  0
  6  7  2  0
  7  8  1  0
  8  9  2  0
  9 10  1  0
 10 11  1  0
 11  5  1  0
M  END
>  <Title>  (120) 
idAACRgen14

$$$$

     RDKit          2D

115116  0  0  0  0  0  0  0  0999 V2000
   -2.1419   -1.0928    0.0000 C   0  0  0  0  0  0  0  0  0  0  0  0
   -2.4828    0.3679    0.0000 C   0  0  0  0  0  0  0  0  0  0  0  0
   -3.9526    0.0685    0.0000 C   0  0  0  0  0  0  0  0  0  0  0  0
   -5.4370   -0.1472    0.0000 C   0  0  0  0  0  0  0  0  0  0  0  0
   -6.9313   -0.2787    0.0000 C   0  0  0  0  0  0  0  0  0  0  0  0
   -8.4305   -0.3254    0.0000 C   0  0  0  0  0  0  0  0  0  0  0  0
   -9.9300   -0.2872    0.0000 C   0  0  0  0  0  0  0  0  0  0  0  0
  -11.4250   -0.1642    0.0000 C   0  0  0  0  0  0  0  0  0  0  0  0
  -12.9106    0.0432    0.0000 C   0  0  0  0  0  0  0  0  0  0  0  0
  -14.3821    0.3342    0.0000 C   0  0  0  0  0  0  0  0  0  0  0  0
  -15.8347    0.7081    0.0000 C   0  0  0  0  0  0  0  0  0  0  0  0
  -17.2639    1.1635    0.0000 C   0  0  0  0  0  0  0  0  0  0  0  0
  -18.6651    1.6991    0.0000 C   0  0  0  0  0  0  0  0  0  0  0  0
  -20.0336    2.3131    0.0000 C   0  0  0  0  0  0  0  0  0  0  0  0
  -21.3653    3.0035    0.0000 C   0  0  0  0  0  0  0  0  0  0  0  0
  -22.6558    3.7682    0.0000 C   0  0  0  0  0  0  0  0  0  0  0  0
  -23.9009    4.6046    0.0000 C   0  0  0  0  0  0  0  0  0  0  0  0
  -25.0967    5.5102    0.0000 C   0  0  0  0  0  0  0  0  0  0  0  0
  -26.2394    6.4819    0.0000 C   0  0  0  0  0  0  0  0  0  0  0  0
  -27.3253    7.5168    0.0000 C   0  0  0  0  0  0  0  0  0  0  0  0
  -28.3508    8.6114    0.0000 C   0  0  0  0  0  0  0  0  0  0  0  0
  -29.3129    9.7623    0.0000 C   0  0  0  0  0  0  0  0  0  0  0  0
  -30.2082   10.9657    0.0000 C   0  0  0  0  0  0  0  0  0  0  0  0
  -31.0341   12.2179    0.0000 C   0  0  0  0  0  0  0  0  0  0  0  0
  -31.7877   13.5148    0.0000 C   0  0  0  0  0  0  0  0  0  0  0  0
  -32.4668   14.8523    0.0000 C   0  0  0  0  0  0  0  0  0  0  0  0
  -33.0692   16.2260    0.0000 C   0  0  0  0  0  0  0  0  0  0  0  0
  -33.5928   17.6317    0.0000 C   0  0  0  0  0  0  0  0  0  0  0  0
  -34.0361   19.0647    0.0000 C   0  0  0  0  0  0  0  0  0  0  0  0
  -34.3976   20.5205    0.0000 C   0  0  0  0  0  0  0  0  0  0  0  0
  -34.6762   21.9944    0.0000 C   0  0  0  0  0  0  0  0  0  0  0  0
  -34.8709   23.4817    0.0000 C   0  0  0  0  0  0  0  0  0  0  0  0
  -34.9812   24.9776    0.0000 C   0  0  0  0  0  0  0  0  0  0  0  0
  -35.0067   26.4774    0.0000 C   0  0  0  0  0  0  0  0  0  0  0  0
  -34.9473   27.9762    0.0000 C   0  0  0  0  0  0  0  0  0  0  0  0
  -34.8031   29.4693    0.0000 C   0  0  0  0  0  0  0  0  0  0  0  0
  -34.5748   30.9518    0.0000 C   0  0  0  0  0  0  0  0  0  0  0  0
  -34.2629   32.4190    0.0000 C   0  0  0  0  0  0  0  0  0  0  0  0
  -33.8685   33.8662    0.0000 C   0  0  0  0  0  0  0  0  0  0  0  0
  -33.3929   35.2888    0.0000 C   0  0  0  0  0  0  0  0  0  0  0  0
  -32.8376   36.6823    0.0000 C   0  0  0  0  0  0  0  0  0  0  0  0
  -32.2043   38.0420    0.0000 C   0  0  0  0  0  0  0  0  0  0  0  0
  -31.4951   39.3638    0.0000 C   0  0  0  0  0  0  0  0  0  0  0  0
  -30.7122   40.6433    0.0000 C   0  0  0  0  0  0  0  0  0  0  0  0
  -29.8583   41.8765    0.0000 C   0  0  0  0  0  0  0  0  0  0  0  0
  -28.9359   43.0593    0.0000 C   0  0  0  0  0  0  0  0  0  0  0  0
  -27.9481   44.1882    0.0000 C   0  0  0  0  0  0  0  0  0  0  0  0
  -26.8980   45.2593    0.0000 C   0  0  0  0  0  0  0  0  0  0  0  0
  -25.7889   46.2693    0.0000 C   0  0  0  0  0  0  0  0  0  0  0  0
  -24.6246   47.2149    0.0000 C   0  0  0  0  0  0  0  0  0  0  0  0
  -23.4085   48.0931    0.0000 C   0  0  0  0  0  0  0  0  0  0  0  0
  -22.1448   48.9012    0.0000 C   0  0  0  0  0  0  0  0  0  0  0  0
  -20.8373   49.6364    0.0000 C   0  0  0  0  0  0  0  0  0  0  0  0
  -19.4904   50.2965    0.0000 C   0  0  0  0  0  0  0  0  0  0  0  0
  -18.1083   50.8793    0.0000 C   0  0  0  0  0  0  0  0  0  0  0  0
  -16.6954   51.3831    0.0000 C   0  0  0  0  0  0  0  0  0  0  0  0
  -15.2562   51.8060    0.0000 C   0  0  0  0  0  0  0  0  0  0  0  0
  -13.7955   52.1469    0.0000 C   0  0  0  0  0  0  0  0  0  0  0  0
  -12.3178   52.4046    0.0000 C   0  0  0  0  0  0  0  0  0  0  0  0
  -10.8279   52.5783    0.0000 C   0  0  0  0  0  0  0  0  0  0  0  0
   -9.3305   52.6674    0.0000 C   0  0  0  0  0  0  0  0  0  0  0  0
   -7.8305   52.6716    0.0000 C   0  0  0  0  0  0  0  0  0  0  0  0
   -6.3327   52.5910    0.0000 C   0  0  0  0  0  0  0  0  0  0  0  0
   -4.8418   52.4257    0.0000 C   0  0  0  0  0  0  0  0  0  0  0  0
   -3.3627   52.1764    0.0000 C   0  0  0  0  0  0  0  0  0  0  0  0
   -1.9000   51.8438    0.0000 C   0  0  0  0  0  0  0  0  0  0  0  0
   -0.4585   51.4290    0.0000 C   0  0  0  0  0  0  0  0  0  0  0  0
    0.9572   50.9333    0.0000 C   0  0  0  0  0  0  0  0  0  0  0  0
    2.3426   50.3583    0.0000 C   0  0  0  0  0  0  0  0  0  0  0  0
    3.6933   49.7058    0.0000 C   0  0  0  0  0  0  0  0  0  0  0  0
    5.0049   48.9780    0.0000 C   0  0  0  0  0  0  0  0  0  0  0  0
    6.2732   48.1771    0.0000 C   0  0  0  0  0  0  0  0  0  0  0  0
    7.4941   47.3058    0.0000 C   0  0  0  0  0  0  0  0  0  0  0  0
    8.6639   46.3668    0.0000 C   0  0  0  0  0  0  0  0  0  0  0  0
    9.7786   45.3631    0.0000 C   0  0  0  0  0  0  0  0  0  0  0  0
   10.8347   44.2979    0.0000 C   0  0  0  0  0  0  0  0  0  0  0  0
   11.8289   43.1747    0.0000 C   0  0  0  0  0  0  0  0  0  0  0  0
   12.7580   41.9971    0.0000 C   0  0  0  0  0  0  0  0  0  0  0  0
   13.6189   40.7688    0.0000 C   0  0  0  0  0  0  0  0  0  0  0  0
   14.4090   39.4937    0.0000 C   0  0  0  0  0  0  0  0  0  0  0  0
   15.1257   38.1760    0.0000 C   0  0  0  0  0  0  0  0  0  0  0  0
   15.7666   36.8198    0.0000 C   0  0  0  0  0  0  0  0  0  0  0  0
   16.3299   35.4296    0.0000 C   0  0  0  0  0  0  0  0  0  0  0  0
   16.8135   34.0097    0.0000 C   0  0  0  0  0  0  0  0  0  0  0  0
   17.2161   32.5647    0.0000 C   0  0  0  0  0  0  0  0  0  0  0  0
   17.5363   31.0993    0.0000 C   0  0  0  0  0  0  0  0  0  0  0  0
   17.7730   29.6181    0.0000 C   0  0  0  0  0  0  0  0  0  0  0  0
   17.9256   28.1259    0.0000 C   0  0  0  0  0  0  0  0  0  0  0  0
   17.9935   26.6274    0.0000 C   0  0  0  0  0  0  0  0  0  0  0  0
   17.9765   25.1275    0.0000 C   0  0  0  0  0  0  0  0  0  0  0  0
   17.8747   23.6310    0.0000 C   0  0  0  0  0  0  0  0  0  0  0  0
   17.6884   22.1426    0.0000 C   0  0  0  0  0  0  0  0  0  0  0  0
   17.4181   20.6671    0.0000 C   0  0  0  0  0  0  0  0  0  0  0  0
   17.0649   19.2093    0.0000 C   0  0  0  0  0  0  0  0  0  0  0  0
   16.6297   17.7738    0.0000 C   0  0  0  0  0  0  0  0  0  0  0  0
   16.1140   16.3652    0.0000 C   0  0  0  0  0  0  0  0  0  0  0  0
   15.5195   14.9881    0.0000 C   0  0  0  0  0  0  0  0  0  0  0  0
   14.8480   13.6468    0.0000 C   0  0  0  0  0  0  0  0  0  0  0  0
   14.1016   12.3457    0.0000 C   0  0  0  0  0  0  0  0  0  0  0  0
   13.2829   11.0888    0.0000 C   0  0  0  0  0  0  0  0  0  0  0  0
   12.3944    9.8803    0.0000 C   0  0  0  0  0  0  0  0  0  0  0  0
   11.4389    8.7240    0.0000 C   0  0  0  0  0  0  0  0  0  0  0  0
   10.4195    7.6236    0.0000 C   0  0  0  0  0  0  0  0  0  0  0  0
    9.3395    6.5826    0.0000 C   0  0  0  0  0  0  0  0  0  0  0  0
    8.2024    5.6044    0.0000 C   0  0  0  0  0  0  0  0  0  0  0  0
    7.0117    4.6921    0.0000 C   0  0  0  0  0  0  0  0  0  0  0  0
    5.7713    3.8486    0.0000 C   0  0  0  0  0  0  0  0  0  0  0  0
    4.4852    3.0767    0.0000 C   0  0  0  0  0  0  0  0  0  0  0  0
    3.1575    2.3787    0.0000 C   0  0  0  0  0  0  0  0  0  0  0  0
    1.7924    1.7570    0.0000 C   0  0  0  0  0  0  0  0  0  0  0  0
    0.3943    1.2135    0.0000 C   0  0  0  0  0  0  0  0  0  0  0  0
    1.2760    0.0000    0.0000 C   0  0  0  0  0  0  0  0  0  0  0  0
    0.3943   -1.2135    0.0000 C   0  0  0  0  0  0  0  0  0  0  0  0
   -1.0323   -0.7500    0.0000 C   0  0  0  0  0  0  0  0  0  0  0  0
   -1.0323    0.7500    0.0000 C   0  0  0  0  0  0  0  0  0  0  0  0
  1  2  1  0
  2  3  1  0
  3  4  1  0
  4  5  1  0
  5  6  1  0
  6  7  1  0
  7  8  1  0
  8  9  1  0
  9 10  1  0
 10 11  1  0
 11 12  1  0
 12 13  1  0
 13 14  1  0
 14 15  1  0
 15 16  1  0
 16 17  1  0
 17 18  1  0
 18 19  1  0
 19 20  1  0
 20 21  1  0
 21 22  1  0
 22 23  1  0
 23 24  1  0
 24 25  1  0
 25 26  1  0
 26 27  1  0
 27 28  1  0
 28 29  1  0
 29 30  1  0
 30 31  1  0
 31 32  1  0
 32 33  1  0
 33 34  1  0
 34 35  1  0
 35 36  1  0
 36 37  1  0
 37 38  1  0
 38 39  1  0
 39 40  1  0
 40 41  1  0
 41 42  1  0
 42 43  1  0
 43 44  1  0
 44 45  1  0
 45 46  1  0
 46 47  1  0
 47 48  1  0
 48 49  1  0
 49 50  1  0
 50 51  1  0
 51 52  1  0
 52 53  1  0
 53 54  1  0
 54 55  1  0
 55 56  1  0
 56 57  1  0
 57 58  1  0
 58 59  1  0
 59 60  1  0
 60 61  1  0
 61 62  1  0
 62 63  1  0
 63 64  1  0
 64 65  1  0
 65 66  1  0
 66 67  1  0
 67 68  1  0
 68 69  1  0
 69 70  1  0
 70 71  1  0
 71 72  1  0
 72 73  1  0
 73 74  1  0
 74 75  1  0
 75 76  1  0
 76 77  1  0
 77 78  1  0
 78 79  1  0
 79 80  1  0
 80 81  1  0
 81 82  1  0
 82 83  1  0
 83 84  1  0
 84 85  1  0
 85 86  1  0
 86 87  1  0
 87 88  1  0
 88 89  1  0
 89 90  1  0
 90 91  1  0
 91 92  1  0
 92 93  1  0
 93 94  1  0
 94 95  1  0
 95 96  1  0
 96 97  1  0
 97 98  1  0
 98 99  1  0
 99100  1  0
100101  1  0
101102  1  0
102103  1  0
103104  1  0
104105  1  0
105106  1  0
106107  1  0
107108  1  0
108109  1  0
109110  1  0
110111  1  0
111112  1  0
112113  2  0
113114  1  0
114115  2  0
115  2  1  0
115111  1  0
M  END
>  <Title>  (121) 
idAACSgen14

$$$$

     RDKit          2D

  9  9  0  0  0  0  0  0  0  0999 V2000
    5.0260   -3.8971    0.0000 O   0  0  0  0  0  0  0  0  0  0  0  0
    4.2760   -2.5981    0.0000 C   0  0  0  0  0  0  0  0  0  0  0  0
    3.5260   -1.2990    0.0000 C   0  0  0  0  0  0  0  0  0  0  0  0
    2.7760    0.0000    0.0000 C   0  0  0  0  0  0  0  0  0  0  0  0
    1.2760    0.0000    0.0000 C   0  0  0  0  0  0  0  0  0  0  0  0
    0.3943    1.2135    0.0000 C   0  0  0  0  0  0  0  0  0  0  0  0
   -1.0323    0.7500    0.0000 C   0  0  0  0  0  0  0  0  0  0  0  0
   -1.0323   -0.7500    0.0000 C   0  0  0  0  0  0  0  0  0  0  0  0
    0.3943   -1.2135    0.0000 N   0  0  0  0  0  0  0  0  0  0  0  0
  1  2  1  0
  2  3  3  0
  3  4  1  0
  4  5  1  0
  5  6  2  0
  6  7  1  0
  7  8  2  0
  8  9  1  0
  9  5  1  0
M  END
>  <Title>  (122) 
idAACTgen14

$$$$

     RDKit          2D

 40 44  0  0  0  0  0  0  0  0999 V2000
   -7.5000   -5.1962    0.0000 C   0  0  0  0  0  0  0  0  0  0  0  0
   -6.0000   -5.1962    0.0000 C   0  0  0  0  0  0  0  0  0  0  0  0
   -5.2500   -6.4952    0.0000 O   0  0  0  0  0  0  0  0  0  0  0  0
   -5.2500   -3.8971    0.0000 N   0  0  0  0  0  0  0  0  0  0  0  0
   -3.7500   -3.8971    0.0000 C   0  0  0  0  0  0  0  0  0  0  0  0
   -3.0000   -2.5981    0.0000 C   0  0  0  0  0  0  0  0  0  0  0  0
   -1.5000   -2.5981    0.0000 C   0  0  0  0  0  0  0  0  0  0  0  0
   -0.7500   -3.8971    0.0000 C   0  0  0  0  0  0  0  0  0  0  0  0
    0.7500   -3.8971    0.0000 C   0  0  0  0  0  0  0  0  0  0  0  0
    1.5000   -2.5981    0.0000 C   0  0  0  0  0  0  0  0  0  0  0  0
    3.0000   -2.5981    0.0000 O   0  0  0  0  0  0  0  0  0  0  0  0
    3.7500   -3.8971    0.0000 C   0  0  0  0  0  0  0  0  0  0  0  0
    3.0000   -5.1962    0.0000 O   0  0  0  0  0  0  0  0  0  0  0  0
    5.2500   -3.8971    0.0000 N   0  0  0  0  0  0  0  0  0  0  0  0
    6.0000   -5.1962    0.0000 C   0  0  0  0  0  0  0  0  0  0  0  0
    5.3899   -6.5665    0.0000 N   0  0  0  0  0  0  0  0  0  0  0  0
    6.5046   -7.5702    0.0000 N   0  0  0  0  0  0  0  0  0  0  0  0
    7.8037   -6.8202    0.0000 N   0  0  0  0  0  0  0  0  0  0  0  0
    7.4918   -5.3529    0.0000 N   0  0  0  0  0  0  0  0  0  0  0  0
    8.4955   -4.2382    0.0000 N   0  0  0  0  0  0  0  0  0  0  0  0
    8.1836   -2.7710    0.0000 C   0  0  0  0  0  0  0  0  0  0  0  0
    9.4826   -2.0210    0.0000 C   0  0  0  0  0  0  0  0  0  0  0  0
   10.5974   -3.0247    0.0000 N   0  0  0  0  0  0  0  0  0  0  0  0
   12.0646   -2.7128    0.0000 C   0  0  0  0  0  0  0  0  0  0  0  0
   13.0683   -3.8276    0.0000 O   0  0  0  0  0  0  0  0  0  0  0  0
   12.5281   -1.2863    0.0000 N   0  0  0  0  0  0  0  0  0  0  0  0
   11.5244   -0.1715    0.0000 C   0  0  0  0  0  0  0  0  0  0  0  0
   10.0572   -0.4834    0.0000 N   0  0  0  0  0  0  0  0  0  0  0  0
    9.0535    0.6313    0.0000 N   0  0  0  0  0  0  0  0  0  0  0  0
    9.5170    2.0579    0.0000 N   0  0  0  0  0  0  0  0  0  0  0  0
   10.9842    2.3698    0.0000 N   0  0  0  0  0  0  0  0  0  0  0  0
   11.9879    1.2551    0.0000 N   0  0  0  0  0  0  0  0  0  0  0  0
    9.9873   -4.3950    0.0000 C   0  0  0  0  0  0  0  0  0  0  0  0
   10.7373   -5.6941    0.0000 O   0  0  0  0  0  0  0  0  0  0  0  0
    0.7500   -1.2990    0.0000 C   0  0  0  0  0  0  0  0  0  0  0  0
    1.5000    0.0000    0.0000 C   0  0  0  0  0  0  0  0  0  0  0  0
    0.7500    1.2990    0.0000 C   0  0  0  0  0  0  0  0  0  0  0  0
   -0.7500    1.2990    0.0000 C   0  0  0  0  0  0  0  0  0  0  0  0
   -1.5000    0.0000    0.0000 C   0  0  0  0  0  0  0  0  0  0  0  0
   -0.7500   -1.2990    0.0000 C   0  0  0  0  0  0  0  0  0  0  0  0
  1  2  1  0
  2  3  2  0
  2  4  1  0
  4  5  1  0
  5  6  1  0
  6  7  1  0
  7  8  2  0
  8  9  1  0
  9 10  2  0
 10 11  1  0
 11 12  1  0
 12 13  2  0
 12 14  1  0
 14 15  1  0
 15 16  2  0
 16 17  1  0
 17 18  2  0
 18 19  1  0
 19 20  1  0
 20 21  1  0
 21 22  1  0
 22 23  1  0
 23 24  1  0
 24 25  2  0
 24 26  1  0
 26 27  1  0
 27 28  2  0
 28 29  1  0
 29 30  2  0
 30 31  1  0
 31 32  2  0
 23 33  1  0
 33 34  2  0
 10 35  1  0
 35 36  2  0
 36 37  1  0
 37 38  2  0
 38 39  1  0
 39 40  2  0
 40  7  1  0
 19 15  1  0
 33 20  1  0
 40 35  1  0
 32 27  1  0
M  END
>  <Title>  (123) 
idAACUgen14

$$$$

     RDKit          2D

  8  8  0  0  0  0  0  0  0  0999 V2000
    4.5000    0.0000    0.0000 C   0  0  0  0  0  0  0  0  0  0  0  0
    3.0000    0.0000    0.0000 C   0  0  0  0  0  0  0  0  0  0  0  0
    1.5000    0.0000    0.0000 C   0  0  0  0  0  0  0  0  0  0  0  0
    0.7500   -1.2990    0.0000 C   0  0  0  0  0  0  0  0  0  0  0  0
   -0.7500   -1.2990    0.0000 C   0  0  0  0  0  0  0  0  0  0  0  0
   -1.5000    0.0000    0.0000 C   0  0  0  0  0  0  0  0  0  0  0  0
   -0.7500    1.2990    0.0000 N   0  0  0  0  0  0  0  0  0  0  0  0
    0.7500    1.2990    0.0000 C   0  0  0  0  0  0  0  0  0  0  0  0
  1  2  3  0
  2  3  1  0
  3  4  2  0
  4  5  1  0
  5  6  2  0
  6  7  1  0
  7  8  2  0
  8  3  1  0
M  END
>  <Title>  (124) 
idAACVgen14

$$$$

     RDKit          2D

 47 53  0  0  0  0  0  0  0  0999 V2000
    0.2161   -8.7197    0.0000 C   0  0  0  0  0  0  0  0  0  0  0  0
    1.5038   -9.4890    0.0000 C   0  0  0  0  0  0  0  0  0  0  0  0
    1.6382  -10.9830    0.0000 C   0  0  0  0  0  0  0  0  0  0  0  0
    3.1006  -11.3168    0.0000 C   0  0  0  0  0  0  0  0  0  0  0  0
    3.8700  -10.0291    0.0000 C   0  0  0  0  0  0  0  0  0  0  0  0
    2.8830   -8.8995    0.0000 C   0  0  0  0  0  0  0  0  0  0  0  0
    3.2168   -7.4371    0.0000 C   0  0  0  0  0  0  0  0  0  0  0  0
    4.6502   -6.9950    0.0000 O   0  0  0  0  0  0  0  0  0  0  0  0
    2.1172   -6.4168    0.0000 N   0  0  0  0  0  0  0  0  0  0  0  0
    2.4510   -4.9544    0.0000 C   0  0  0  0  0  0  0  0  0  0  0  0
    3.8844   -4.5123    0.0000 N   0  0  0  0  0  0  0  0  0  0  0  0
    4.2182   -3.0499    0.0000 N   0  0  0  0  0  0  0  0  0  0  0  0
    3.1186   -2.0297    0.0000 N   0  0  0  0  0  0  0  0  0  0  0  0
    1.6852   -2.4718    0.0000 N   0  0  0  0  0  0  0  0  0  0  0  0
    0.7500   -1.2990    0.0000 C   0  0  0  0  0  0  0  0  0  0  0  0
    1.5000    0.0000    0.0000 C   0  0  0  0  0  0  0  0  0  0  0  0
    0.7500    1.2990    0.0000 C   0  0  0  0  0  0  0  0  0  0  0  0
   -0.7500    1.2990    0.0000 C   0  0  0  0  0  0  0  0  0  0  0  0
   -1.5000    0.0000    0.0000 C   0  0  0  0  0  0  0  0  0  0  0  0
   -0.7500   -1.2990    0.0000 C   0  0  0  0  0  0  0  0  0  0  0  0
   -1.6852   -2.4718    0.0000 N   0  0  0  0  0  0  0  0  0  0  0  0
   -3.1476   -2.1380    0.0000 C   0  0  0  0  0  0  0  0  0  0  0  0
   -3.5898   -0.7046    0.0000 O   0  0  0  0  0  0  0  0  0  0  0  0
   -4.1679   -3.2376    0.0000 N   0  0  0  0  0  0  0  0  0  0  0  0
   -5.6303   -2.9038    0.0000 C   0  0  0  0  0  0  0  0  0  0  0  0
   -6.2198   -1.5245    0.0000 N   0  0  0  0  0  0  0  0  0  0  0  0
   -7.7138   -1.6590    0.0000 N   0  0  0  0  0  0  0  0  0  0  0  0
   -8.0476   -3.1214    0.0000 N   0  0  0  0  0  0  0  0  0  0  0  0
   -6.7599   -3.8907    0.0000 N   0  0  0  0  0  0  0  0  0  0  0  0
   -6.6254   -5.3847    0.0000 N   0  0  0  0  0  0  0  0  0  0  0  0
   -5.3378   -6.1540    0.0000 C   0  0  0  0  0  0  0  0  0  0  0  0
   -5.6715   -7.6164    0.0000 C   0  0  0  0  0  0  0  0  0  0  0  0
   -7.1655   -7.7509    0.0000 N   0  0  0  0  0  0  0  0  0  0  0  0
   -7.9348   -9.0385    0.0000 C   0  0  0  0  0  0  0  0  0  0  0  0
   -9.4347   -9.0161    0.0000 O   0  0  0  0  0  0  0  0  0  0  0  0
   -7.2044  -10.3487    0.0000 N   0  0  0  0  0  0  0  0  0  0  0  0
   -7.9737  -11.6363    0.0000 C   0  0  0  0  0  0  0  0  0  0  0  0
   -9.4735  -11.6139    0.0000 N   0  0  0  0  0  0  0  0  0  0  0  0
  -10.2429  -12.9016    0.0000 N   0  0  0  0  0  0  0  0  0  0  0  0
   -9.5124  -14.2117    0.0000 N   0  0  0  0  0  0  0  0  0  0  0  0
   -8.0126  -14.2341    0.0000 N   0  0  0  0  0  0  0  0  0  0  0  0
   -7.2432  -12.9464    0.0000 N   0  0  0  0  0  0  0  0  0  0  0  0
   -7.7550   -6.3716    0.0000 C   0  0  0  0  0  0  0  0  0  0  0  0
   -9.2174   -6.0378    0.0000 O   0  0  0  0  0  0  0  0  0  0  0  0
   -1.3515   -3.9342    0.0000 C   0  0  0  0  0  0  0  0  0  0  0  0
   -0.0000   -4.5850    0.0000 C   0  0  0  0  0  0  0  0  0  0  0  0
    1.3515   -3.9342    0.0000 N   0  0  0  0  0  0  0  0  0  0  0  0
  1  2  1  0
  2  3  1  0
  3  4  1  0
  4  5  1  0
  5  6  1  0
  6  7  1  0
  7  8  2  0
  7  9  1  0
  9 10  1  0
 10 11  2  0
 11 12  1  0
 12 13  2  0
 13 14  1  0
 14 15  1  0
 15 16  2  0
 16 17  1  0
 17 18  2  0
 18 19  1  0
 19 20  2  0
 20 21  1  0
 21 22  1  0
 22 23  2  0
 22 24  1  0
 24 25  1  0
 25 26  2  0
 26 27  1  0
 27 28  2  0
 28 29  1  0
 29 30  1  0
 30 31  1  0
 31 32  1  0
 32 33  1  0
 33 34  1  0
 34 35  2  0
 34 36  1  0
 36 37  1  0
 37 38  2  0
 38 39  1  0
 39 40  2  0
 40 41  1  0
 41 42  2  0
 33 43  1  0
 43 44  2  0
 21 45  1  0
 45 46  1  0
 46 47  1  0
  6  2  1  0
 47 10  1  0
 47 14  1  0
 20 15  1  0
 29 25  1  0
 43 30  1  0
 42 37  1  0
M  END
>  <Title>  (125) 
idAACWgen14

$$$$

     RDKit          2D

 38 42  0  0  0  0  0  0  0  0999 V2000
   10.5000    5.1962    0.0000 C   0  0  0  0  0  0  0  0  0  0  0  0
    9.7500    3.8971    0.0000 C   0  0  0  0  0  0  0  0  0  0  0  0
   10.5000    2.5981    0.0000 C   0  0  0  0  0  0  0  0  0  0  0  0
    8.2500    3.8971    0.0000 C   0  0  0  0  0  0  0  0  0  0  0  0
    7.5000    2.5981    0.0000 C   0  0  0  0  0  0  0  0  0  0  0  0
    8.2500    1.2990    0.0000 C   0  0  0  0  0  0  0  0  0  0  0  0
    7.5000    0.0000    0.0000 C   0  0  0  0  0  0  0  0  0  0  0  0
    6.0000    0.0000    0.0000 C   0  0  0  0  0  0  0  0  0  0  0  0
    5.2500   -1.2990    0.0000 N   0  0  0  0  0  0  0  0  0  0  0  0
    6.0000   -2.5981    0.0000 C   0  0  0  0  0  0  0  0  0  0  0  0
    7.5000   -2.5981    0.0000 O   0  0  0  0  0  0  0  0  0  0  0  0
    5.2500   -3.8971    0.0000 N   0  0  0  0  0  0  0  0  0  0  0  0
    6.0000   -5.1962    0.0000 C   0  0  0  0  0  0  0  0  0  0  0  0
    7.4918   -5.3529    0.0000 N   0  0  0  0  0  0  0  0  0  0  0  0
    7.8037   -6.8202    0.0000 N   0  0  0  0  0  0  0  0  0  0  0  0
    6.5046   -7.5702    0.0000 N   0  0  0  0  0  0  0  0  0  0  0  0
    5.3899   -6.5665    0.0000 N   0  0  0  0  0  0  0  0  0  0  0  0
    3.9227   -6.8783    0.0000 N   0  0  0  0  0  0  0  0  0  0  0  0
    3.3126   -8.2487    0.0000 C   0  0  0  0  0  0  0  0  0  0  0  0
    1.8208   -8.0919    0.0000 C   0  0  0  0  0  0  0  0  0  0  0  0
    1.5089   -6.6246    0.0000 N   0  0  0  0  0  0  0  0  0  0  0  0
    0.1386   -6.0145    0.0000 C   0  0  0  0  0  0  0  0  0  0  0  0
   -0.0182   -4.5228    0.0000 O   0  0  0  0  0  0  0  0  0  0  0  0
   -1.0749   -6.8962    0.0000 N   0  0  0  0  0  0  0  0  0  0  0  0
   -0.9181   -8.3880    0.0000 C   0  0  0  0  0  0  0  0  0  0  0  0
   -2.1317   -9.2697    0.0000 N   0  0  0  0  0  0  0  0  0  0  0  0
   -1.9749  -10.7615    0.0000 N   0  0  0  0  0  0  0  0  0  0  0  0
   -0.6045  -11.3716    0.0000 N   0  0  0  0  0  0  0  0  0  0  0  0
    0.6090  -10.4899    0.0000 N   0  0  0  0  0  0  0  0  0  0  0  0
    0.4522   -8.9981    0.0000 N   0  0  0  0  0  0  0  0  0  0  0  0
    2.8080   -5.8746    0.0000 C   0  0  0  0  0  0  0  0  0  0  0  0
    2.9647   -4.3829    0.0000 O   0  0  0  0  0  0  0  0  0  0  0  0
    5.2500    1.2990    0.0000 C   0  0  0  0  0  0  0  0  0  0  0  0
    3.7500    1.2990    0.0000 C   0  0  0  0  0  0  0  0  0  0  0  0
    3.0000    2.5981    0.0000 C   0  0  0  0  0  0  0  0  0  0  0  0
    3.7500    3.8971    0.0000 C   0  0  0  0  0  0  0  0  0  0  0  0
    5.2500    3.8971    0.0000 C   0  0  0  0  0  0  0  0  0  0  0  0
    6.0000    2.5981    0.0000 C   0  0  0  0  0  0  0  0  0  0  0  0
  1  2  1  0
  2  3  1  0
  2  4  1  0
  4  5  1  0
  5  6  2  0
  6  7  1  0
  7  8  2  0
  8  9  1  0
  9 10  1  0
 10 11  2  0
 10 12  1  0
 12 13  1  0
 13 14  2  0
 14 15  1  0
 15 16  2  0
 16 17  1  0
 17 18  1  0
 18 19  1  0
 19 20  1  0
 20 21  1  0
 21 22  1  0
 22 23  2  0
 22 24  1  0
 24 25  1  0
 25 26  2  0
 26 27  1  0
 27 28  2  0
 28 29  1  0
 29 30  2  0
 21 31  1  0
 31 32  2  0
  8 33  1  0
 33 34  2  0
 34 35  1  0
 35 36  2  0
 36 37  1  0
 37 38  2  0
 38  5  1  0
 17 13  1  0
 31 18  1  0
 38 33  1  0
 30 25  1  0
M  END
>  <Title>  (126) 
idAACXgen14

$$$$

     RDKit          2D

  6  5  0  0  0  0  0  0  0  0999 V2000
    0.0000    0.0000    0.0000 C   0  0  0  0  0  0  0  0  0  0  0  0
    1.2990    0.7500    0.0000 C   0  0  0  0  0  0  0  0  0  0  0  0
    2.5981   -0.0000    0.0000 C   0  0  0  0  0  0  0  0  0  0  0  0
    3.8971    0.7500    0.0000 C   0  0  0  0  0  0  0  0  0  0  0  0
    5.1962   -0.0000    0.0000 C   0  0  0  0  0  0  0  0  0  0  0  0
    6.4952    0.7500    0.0000 C   0  0  0  0  0  0  0  0  0  0  0  0
  1  2  2  0
  2  3  1  0
  3  4  1  0
  4  5  1  0
  5  6  2  0
M  END
>  <Title>  (127) 
idAACYgen14

$$$$

     RDKit          2D

107108  0  0  0  0  0  0  0  0999 V2000
   -2.2920    0.6844    0.0000 C   0  0  0  0  0  0  0  0  0  0  0  0
   -1.8235    2.1093    0.0000 C   0  0  0  0  0  0  0  0  0  0  0  0
   -3.2331    2.6220    0.0000 C   0  0  0  0  0  0  0  0  0  0  0  0
   -4.6082    3.2213    0.0000 C   0  0  0  0  0  0  0  0  0  0  0  0
   -5.9433    3.9050    0.0000 C   0  0  0  0  0  0  0  0  0  0  0  0
   -7.2334    4.6703    0.0000 C   0  0  0  0  0  0  0  0  0  0  0  0
   -8.4734    5.5144    0.0000 C   0  0  0  0  0  0  0  0  0  0  0  0
   -9.6585    6.4339    0.0000 C   0  0  0  0  0  0  0  0  0  0  0  0
  -10.7841    7.4253    0.0000 C   0  0  0  0  0  0  0  0  0  0  0  0
  -11.8460    8.4848    0.0000 C   0  0  0  0  0  0  0  0  0  0  0  0
  -12.8399    9.6082    0.0000 C   0  0  0  0  0  0  0  0  0  0  0  0
  -13.7620   10.7913    0.0000 C   0  0  0  0  0  0  0  0  0  0  0  0
  -14.6089   12.0294    0.0000 C   0  0  0  0  0  0  0  0  0  0  0  0
  -15.3771   13.3177    0.0000 C   0  0  0  0  0  0  0  0  0  0  0  0
  -16.0637   14.6514    0.0000 C   0  0  0  0  0  0  0  0  0  0  0  0
  -16.6661   16.0251    0.0000 C   0  0  0  0  0  0  0  0  0  0  0  0
  -17.1819   17.4336    0.0000 C   0  0  0  0  0  0  0  0  0  0  0  0
  -17.6091   18.8715    0.0000 C   0  0  0  0  0  0  0  0  0  0  0  0
  -17.9462   20.3331    0.0000 C   0  0  0  0  0  0  0  0  0  0  0  0
  -18.1917   21.8129    0.0000 C   0  0  0  0  0  0  0  0  0  0  0  0
  -18.3447   23.3051    0.0000 C   0  0  0  0  0  0  0  0  0  0  0  0
  -18.4047   24.8039    0.0000 C   0  0  0  0  0  0  0  0  0  0  0  0
  -18.3713   26.3035    0.0000 C   0  0  0  0  0  0  0  0  0  0  0  0
  -18.2449   27.7982    0.0000 C   0  0  0  0  0  0  0  0  0  0  0  0
  -18.0257   29.2821    0.0000 C   0  0  0  0  0  0  0  0  0  0  0  0
  -17.7147   30.7495    0.0000 C   0  0  0  0  0  0  0  0  0  0  0  0
  -17.3131   32.1947    0.0000 C   0  0  0  0  0  0  0  0  0  0  0  0
  -16.8224   33.6122    0.0000 C   0  0  0  0  0  0  0  0  0  0  0  0
  -16.2445   34.9964    0.0000 C   0  0  0  0  0  0  0  0  0  0  0  0
  -15.5817   36.3420    0.0000 C   0  0  0  0  0  0  0  0  0  0  0  0
  -14.8365   37.6438    0.0000 C   0  0  0  0  0  0  0  0  0  0  0  0
  -14.0118   38.8968    0.0000 C   0  0  0  0  0  0  0  0  0  0  0  0
  -13.1108   40.0960    0.0000 C   0  0  0  0  0  0  0  0  0  0  0  0
  -12.1371   41.2370    0.0000 C   0  0  0  0  0  0  0  0  0  0  0  0
  -11.0942   42.3152    0.0000 C   0  0  0  0  0  0  0  0  0  0  0  0
   -9.9864   43.3264    0.0000 C   0  0  0  0  0  0  0  0  0  0  0  0
   -8.8178   44.2669    0.0000 C   0  0  0  0  0  0  0  0  0  0  0  0
   -7.5930   45.1328    0.0000 C   0  0  0  0  0  0  0  0  0  0  0  0
   -6.3167   45.9210    0.0000 C   0  0  0  0  0  0  0  0  0  0  0  0
   -4.9940   46.6283    0.0000 C   0  0  0  0  0  0  0  0  0  0  0  0
   -3.6298   47.2519    0.0000 C   0  0  0  0  0  0  0  0  0  0  0  0
   -2.2294   47.7896    0.0000 C   0  0  0  0  0  0  0  0  0  0  0  0
   -0.7984   48.2392    0.0000 C   0  0  0  0  0  0  0  0  0  0  0  0
    0.6578   48.5989    0.0000 C   0  0  0  0  0  0  0  0  0  0  0  0
    2.1336   48.8674    0.0000 C   0  0  0  0  0  0  0  0  0  0  0  0
    3.6232   49.0436    0.0000 C   0  0  0  0  0  0  0  0  0  0  0  0
    5.1209   49.1269    0.0000 C   0  0  0  0  0  0  0  0  0  0  0  0
    6.6209   49.1169    0.0000 C   0  0  0  0  0  0  0  0  0  0  0  0
    8.1173   49.0136    0.0000 C   0  0  0  0  0  0  0  0  0  0  0  0
    9.6045   48.8176    0.0000 C   0  0  0  0  0  0  0  0  0  0  0  0
   11.0765   48.5294    0.0000 C   0  0  0  0  0  0  0  0  0  0  0  0
   12.5278   48.1503    0.0000 C   0  0  0  0  0  0  0  0  0  0  0  0
   13.9528   47.6817    0.0000 C   0  0  0  0  0  0  0  0  0  0  0  0
   15.3458   47.1255    0.0000 C   0  0  0  0  0  0  0  0  0  0  0  0
   16.7016   46.4837    0.0000 C   0  0  0  0  0  0  0  0  0  0  0  0
   18.0148   45.7588    0.0000 C   0  0  0  0  0  0  0  0  0  0  0  0
   19.2804   44.9537    0.0000 C   0  0  0  0  0  0  0  0  0  0  0  0
   20.4936   44.0715    0.0000 C   0  0  0  0  0  0  0  0  0  0  0  0
   21.6495   43.1156    0.0000 C   0  0  0  0  0  0  0  0  0  0  0  0
   22.7438   42.0896    0.0000 C   0  0  0  0  0  0  0  0  0  0  0  0
   23.7722   40.9976    0.0000 C   0  0  0  0  0  0  0  0  0  0  0  0
   24.7306   39.8438    0.0000 C   0  0  0  0  0  0  0  0  0  0  0  0
   25.6156   38.6326    0.0000 C   0  0  0  0  0  0  0  0  0  0  0  0
   26.4235   37.3688    0.0000 C   0  0  0  0  0  0  0  0  0  0  0  0
   27.1512   36.0572    0.0000 C   0  0  0  0  0  0  0  0  0  0  0  0
   27.7960   34.7028    0.0000 C   0  0  0  0  0  0  0  0  0  0  0  0
   28.3554   33.3110    0.0000 C   0  0  0  0  0  0  0  0  0  0  0  0
   28.8272   31.8872    0.0000 C   0  0  0  0  0  0  0  0  0  0  0  0
   29.2095   30.4367    0.0000 C   0  0  0  0  0  0  0  0  0  0  0  0
   29.5009   28.9653    0.0000 C   0  0  0  0  0  0  0  0  0  0  0  0
   29.7003   27.4786    0.0000 C   0  0  0  0  0  0  0  0  0  0  0  0
   29.8068   25.9824    0.0000 C   0  0  0  0  0  0  0  0  0  0  0  0
   29.8202   24.4824    0.0000 C   0  0  0  0  0  0  0  0  0  0  0  0
   29.7402   22.9846    0.0000 C   0  0  0  0  0  0  0  0  0  0  0  0
   29.5673   21.4946    0.0000 C   0  0  0  0  0  0  0  0  0  0  0  0
   29.3021   20.0182    0.0000 C   0  0  0  0  0  0  0  0  0  0  0  0
   28.9456   18.5612    0.0000 C   0  0  0  0  0  0  0  0  0  0  0  0
   28.4992   17.1291    0.0000 C   0  0  0  0  0  0  0  0  0  0  0  0
   27.9647   15.7276    0.0000 C   0  0  0  0  0  0  0  0  0  0  0  0
   27.3440   14.3620    0.0000 C   0  0  0  0  0  0  0  0  0  0  0  0
   26.6397   13.0377    0.0000 C   0  0  0  0  0  0  0  0  0  0  0  0
   25.8544   11.7597    0.0000 C   0  0  0  0  0  0  0  0  0  0  0  0
   24.9911   10.5330    0.0000 C   0  0  0  0  0  0  0  0  0  0  0  0
   24.0533    9.3623    0.0000 C   0  0  0  0  0  0  0  0  0  0  0  0
   23.0445    8.2522    0.0000 C   0  0  0  0  0  0  0  0  0  0  0  0
   21.9686    7.2070    0.0000 C   0  0  0  0  0  0  0  0  0  0  0  0
   20.8299    6.2307    0.0000 C   0  0  0  0  0  0  0  0  0  0  0  0
   19.6326    5.3270    0.0000 C   0  0  0  0  0  0  0  0  0  0  0  0
   18.3815    4.4996    0.0000 C   0  0  0  0  0  0  0  0  0  0  0  0
   17.0813    3.7515    0.0000 C   0  0  0  0  0  0  0  0  0  0  0  0
   15.7372    3.0857    0.0000 C   0  0  0  0  0  0  0  0  0  0  0  0
   14.3543    2.5047    0.0000 C   0  0  0  0  0  0  0  0  0  0  0  0
   12.9379    2.0109    0.0000 C   0  0  0  0  0  0  0  0  0  0  0  0
   11.4935    1.6061    0.0000 C   0  0  0  0  0  0  0  0  0  0  0  0
   10.0268    1.2918    0.0000 C   0  0  0  0  0  0  0  0  0  0  0  0
    8.5434    1.0693    0.0000 C   0  0  0  0  0  0  0  0  0  0  0  0
    7.0491    0.9395    0.0000 C   0  0  0  0  0  0  0  0  0  0  0  0
    5.5495    0.9029    0.0000 C   0  0  0  0  0  0  0  0  0  0  0  0
    4.0506    0.9595    0.0000 C   0  0  0  0  0  0  0  0  0  0  0  0
    2.5581    1.1092    0.0000 C   0  0  0  0  0  0  0  0  0  0  0  0
    1.0777    1.3515    0.0000 C   0  0  0  0  0  0  0  0  0  0  0  0
    1.7286    0.0000    0.0000 C   0  0  0  0  0  0  0  0  0  0  0  0
    1.0777   -1.3515    0.0000 C   0  0  0  0  0  0  0  0  0  0  0  0
   -0.3846   -1.6852    0.0000 C   0  0  0  0  0  0  0  0  0  0  0  0
   -1.5574   -0.7500    0.0000 C   0  0  0  0  0  0  0  0  0  0  0  0
   -1.5574    0.7500    0.0000 C   0  0  0  0  0  0  0  0  0  0  0  0
   -0.3846    1.6852    0.0000 C   0  0  0  0  0  0  0  0  0  0  0  0
  1  2  1  0
  2  3  1  0
  3  4  1  0
  4  5  1  0
  5  6  1  0
  6  7  1  0
  7  8  1  0
  8  9  1  0
  9 10  1  0
 10 11  1  0
 11 12  1  0
 12 13  1  0
 13 14  1  0
 14 15  1  0
 15 16  1  0
 16 17  1  0
 17 18  1  0
 18 19  1  0
 19 20  1  0
 20 21  1  0
 21 22  1  0
 22 23  1  0
 23 24  1  0
 24 25  1  0
 25 26  1  0
 26 27  1  0
 27 28  1  0
 28 29  1  0
 29 30  1  0
 30 31  1  0
 31 32  1  0
 32 33  1  0
 33 34  1  0
 34 35  1  0
 35 36  1  0
 36 37  1  0
 37 38  1  0
 38 39  1  0
 39 40  1  0
 40 41  1  0
 41 42  1  0
 42 43  1  0
 43 44  1  0
 44 45  1  0
 45 46  1  0
 46 47  1  0
 47 48  1  0
 48 49  1  0
 49 50  1  0
 50 51  1  0
 51 52  1  0
 52 53  1  0
 53 54  1  0
 54 55  1  0
 55 56  1  0
 56 57  1  0
 57 58  1  0
 58 59  1  0
 59 60  1  0
 60 61  1  0
 61 62  1  0
 62 63  1  0
 63 64  1  0
 64 65  1  0
 65 66  1  0
 66 67  1  0
 67 68  1  0
 68 69  1  0
 69 70  1  0
 70 71  1  0
 71 72  1  0
 72 73  1  0
 73 74  1  0
 74 75  1  0
 75 76  1  0
 76 77  1  0
 77 78  1  0
 78 79  1  0
 79 80  1  0
 80 81  1  0
 81 82  1  0
 82 83  1  0
 83 84  1  0
 84 85  1  0
 85 86  1  0
 86 87  1  0
 87 88  1  0
 88 89  1  0
 89 90  1  0
 90 91  1  0
 91 92  1  0
 92 93  1  0
 93 94  1  0
 94 95  1  0
 95 96  1  0
 96 97  1  0
 97 98  1  0
 98 99  1  0
 99100  1  0
100101  1  0
101102  1  0
102103  1  0
103104  1  0
104105  2  0
105106  1  0
106107  2  0
107  2  1  0
107101  1  0
M  END
>  <Title>  (128) 
idAACZgen14

$$$$

     RDKit          2D

 13 14  0  0  0  0  0  0  0  0999 V2000
    3.0000    0.0000    0.0000 C   0  0  0  0  0  0  0  0  0  0  0  0
    1.5000    0.0000    0.0000 C   0  0  0  0  0  0  0  0  0  0  0  0
    0.7500   -1.2990    0.0000 C   0  0  0  0  0  0  0  0  0  0  0  0
   -0.7500   -1.2990    0.0000 C   0  0  0  0  0  0  0  0  0  0  0  0
   -1.5000    0.0000    0.0000 C   0  0  0  0  0  0  0  0  0  0  0  0
   -3.0000    0.0000    0.0000 N   0  0  0  0  0  0  0  0  0  0  0  0
   -3.7500    1.2990    0.0000 C   0  0  0  0  0  0  0  0  0  0  0  0
   -5.2500    1.2990    0.0000 C   0  0  0  0  0  0  0  0  0  0  0  0
   -6.0000    0.0000    0.0000 N   0  0  0  0  0  0  0  0  0  0  0  0
   -5.2500   -1.2990    0.0000 N   0  0  0  0  0  0  0  0  0  0  0  0
   -3.7500   -1.2990    0.0000 N   0  0  0  0  0  0  0  0  0  0  0  0
   -0.7500    1.2990    0.0000 C   0  0  0  0  0  0  0  0  0  0  0  0
    0.7500    1.2990    0.0000 C   0  0  0  0  0  0  0  0  0  0  0  0
  1  2  1  0
  2  3  2  0
  3  4  1  0
  4  5  1  0
  5  6  1  0
  6  7  1  0
  7  8  1  0
  8  9  2  0
  9 10  1  0
 10 11  2  0
  5 12  1  0
 12 13  2  0
 13  2  1  0
 11  6  1  0
M  END
>  <Title>  (129) 
idAADAgen14

$$$$

     RDKit          2D

  8  8  0  0  0  0  0  0  0  0999 V2000
    3.7500   -1.2990    0.0000 C   0  0  0  0  0  0  0  0  0  0  0  0
    3.0000    0.0000    0.0000 C   0  0  0  0  0  0  0  0  0  0  0  0
    1.5000    0.0000    0.0000 C   0  0  0  0  0  0  0  0  0  0  0  0
    0.7500   -1.2990    0.0000 C   0  0  0  0  0  0  0  0  0  0  0  0
   -0.7500   -1.2990    0.0000 C   0  0  0  0  0  0  0  0  0  0  0  0
   -1.5000    0.0000    0.0000 C   0  0  0  0  0  0  0  0  0  0  0  0
   -0.7500    1.2990    0.0000 N   0  0  0  0  0  0  0  0  0  0  0  0
    0.7500    1.2990    0.0000 C   0  0  0  0  0  0  0  0  0  0  0  0
  1  2  2  0
  2  3  1  0
  3  4  2  0
  4  5  1  0
  5  6  2  0
  6  7  1  0
  7  8  2  0
  8  3  1  0
M  END
>  <Title>  (130) 
idAADBgen14

$$$$

     RDKit          2D

  6  6  0  0  0  0  0  0  0  0999 V2000
    2.1213    1.0607    0.0000 C   0  0  0  0  0  0  0  0  0  0  0  0
    1.0607    0.0000    0.0000 C   0  0  0  0  0  0  0  0  0  0  0  0
    2.1213   -1.0607    0.0000 C   0  0  0  0  0  0  0  0  0  0  0  0
   -0.0000   -1.0607    0.0000 C   0  0  0  0  0  0  0  0  0  0  0  0
   -1.0607    0.0000    0.0000 C   0  0  0  0  0  0  0  0  0  0  0  0
    0.0000    1.0607    0.0000 N   0  0  0  0  0  0  0  0  0  0  0  0
  1  2  1  0
  2  3  1  0
  2  4  1  0
  4  5  1  0
  5  6  1  0
  6  2  1  0
M  END
>  <Title>  (131) 
idAADCgen14

$$$$

     RDKit          2D

 12 11  0  0  0  0  0  0  0  0999 V2000
    0.0000    0.0000    0.0000 C   0  0  0  0  0  0  0  0  0  0  0  0
    1.2990    0.7500    0.0000 C   0  0  0  0  0  0  0  0  0  0  0  0
    2.5981   -0.0000    0.0000 C   0  0  0  0  0  0  0  0  0  0  0  0
    3.8971    0.7500    0.0000 C   0  0  0  0  0  0  0  0  0  0  0  0
    5.1962   -0.0000    0.0000 C   0  0  0  0  0  0  0  0  0  0  0  0
    6.4952    0.7500    0.0000 C   0  0  0  0  0  0  0  0  0  0  0  0
    7.7942   -0.0000    0.0000 N   0  0  0  0  0  0  0  0  0  0  0  0
    9.0933    0.7500    0.0000 C   0  0  0  0  0  0  0  0  0  0  0  0
    9.0933    2.2500    0.0000 O   0  0  0  0  0  0  0  0  0  0  0  0
   10.3923   -0.0000    0.0000 C   0  0  0  0  0  0  0  0  0  0  0  0
   11.6913    0.7500    0.0000 C   0  0  0  0  0  0  0  0  0  0  0  0
   12.9904   -0.0000    0.0000 C   0  0  0  0  0  0  0  0  0  0  0  0
  1  2  1  0
  2  3  1  0
  3  4  2  3
  4  5  1  0
  5  6  1  0
  6  7  1  0
  7  8  1  0
  8  9  2  0
  8 10  1  0
 10 11  1  0
 11 12  1  0
M  END
>  <Title>  (132) 
idAADDgen14

$$$$

     RDKit          2D

 35 39  0  0  0  0  0  0  0  0999 V2000
    8.2500    3.8971    0.0000 C   0  0  0  0  0  0  0  0  0  0  0  0
    7.5000    2.5981    0.0000 C   0  0  0  0  0  0  0  0  0  0  0  0
    8.2500    1.2990    0.0000 N   0  0  0  0  0  0  0  0  0  0  0  0
    7.5000    0.0000    0.0000 N   0  0  0  0  0  0  0  0  0  0  0  0
    6.0000    0.0000    0.0000 C   0  0  0  0  0  0  0  0  0  0  0  0
    5.2500   -1.2990    0.0000 O   0  0  0  0  0  0  0  0  0  0  0  0
    6.0000   -2.5981    0.0000 C   0  0  0  0  0  0  0  0  0  0  0  0
    7.5000   -2.5981    0.0000 O   0  0  0  0  0  0  0  0  0  0  0  0
    5.2500   -3.8971    0.0000 N   0  0  0  0  0  0  0  0  0  0  0  0
    6.0000   -5.1962    0.0000 C   0  0  0  0  0  0  0  0  0  0  0  0
    7.4918   -5.3529    0.0000 N   0  0  0  0  0  0  0  0  0  0  0  0
    7.8037   -6.8202    0.0000 N   0  0  0  0  0  0  0  0  0  0  0  0
    6.5046   -7.5702    0.0000 N   0  0  0  0  0  0  0  0  0  0  0  0
    5.3899   -6.5665    0.0000 N   0  0  0  0  0  0  0  0  0  0  0  0
    3.9227   -6.8783    0.0000 C   0  0  0  0  0  0  0  0  0  0  0  0
    2.8080   -5.8746    0.0000 C   0  0  0  0  0  0  0  0  0  0  0  0
    1.5089   -6.6246    0.0000 C   0  0  0  0  0  0  0  0  0  0  0  0
    1.8208   -8.0919    0.0000 C   0  0  0  0  0  0  0  0  0  0  0  0
    0.8171   -9.2066    0.0000 C   0  0  0  0  0  0  0  0  0  0  0  0
    1.2806  -10.6332    0.0000 O   0  0  0  0  0  0  0  0  0  0  0  0
   -0.6501   -8.8947    0.0000 N   0  0  0  0  0  0  0  0  0  0  0  0
   -1.6538  -10.0094    0.0000 C   0  0  0  0  0  0  0  0  0  0  0  0
   -1.1903  -11.4360    0.0000 N   0  0  0  0  0  0  0  0  0  0  0  0
   -2.1940  -12.5507    0.0000 N   0  0  0  0  0  0  0  0  0  0  0  0
   -3.6612  -12.2389    0.0000 N   0  0  0  0  0  0  0  0  0  0  0  0
   -4.1247  -10.8123    0.0000 N   0  0  0  0  0  0  0  0  0  0  0  0
   -3.1210   -9.6976    0.0000 N   0  0  0  0  0  0  0  0  0  0  0  0
    3.3126   -8.2487    0.0000 C   0  0  0  0  0  0  0  0  0  0  0  0
    4.0626   -9.5477    0.0000 O   0  0  0  0  0  0  0  0  0  0  0  0
    5.2500    1.2990    0.0000 C   0  0  0  0  0  0  0  0  0  0  0  0
    3.7500    1.2990    0.0000 C   0  0  0  0  0  0  0  0  0  0  0  0
    3.0000    2.5981    0.0000 C   0  0  0  0  0  0  0  0  0  0  0  0
    3.7500    3.8971    0.0000 C   0  0  0  0  0  0  0  0  0  0  0  0
    5.2500    3.8971    0.0000 C   0  0  0  0  0  0  0  0  0  0  0  0
    6.0000    2.5981    0.0000 C   0  0  0  0  0  0  0  0  0  0  0  0
  1  2  1  0
  2  3  2  0
  3  4  1  0
  4  5  2  0
  5  6  1  0
  6  7  1  0
  7  8  2  0
  7  9  1  0
  9 10  1  0
 10 11  2  0
 11 12  1  0
 12 13  2  0
 13 14  1  0
 14 15  1  0
 15 16  2  0
 16 17  1  0
 17 18  2  0
 18 19  1  0
 19 20  2  0
 19 21  1  0
 21 22  1  0
 22 23  2  0
 23 24  1  0
 24 25  2  0
 25 26  1  0
 26 27  2  0
 18 28  1  0
 28 29  2  0
  5 30  1  0
 30 31  2  0
 31 32  1  0
 32 33  2  0
 33 34  1  0
 34 35  2  0
 35  2  1  0
 14 10  1  0
 28 15  1  0
 35 30  1  0
 27 22  1  0
M  END
>  <Title>  (133) 
idAADEgen14

$$$$

     RDKit          2D

 42 47  0  0  0  0  0  0  0  0999 V2000
   -3.1771   -5.9156    0.0000 C   0  0  0  0  0  0  0  0  0  0  0  0
   -1.9635   -5.0339    0.0000 C   0  0  0  0  0  0  0  0  0  0  0  0
   -0.7500   -5.9156    0.0000 C   0  0  0  0  0  0  0  0  0  0  0  0
    0.7500   -5.9156    0.0000 C   0  0  0  0  0  0  0  0  0  0  0  0
    1.9635   -5.0339    0.0000 C   0  0  0  0  0  0  0  0  0  0  0  0
    2.4271   -3.6073    0.0000 C   0  0  0  0  0  0  0  0  0  0  0  0
    1.9635   -2.1807    0.0000 C   0  0  0  0  0  0  0  0  0  0  0  0
    3.1771   -1.2990    0.0000 C   0  0  0  0  0  0  0  0  0  0  0  0
    3.0203    0.1927    0.0000 O   0  0  0  0  0  0  0  0  0  0  0  0
    4.5474   -1.9091    0.0000 N   0  0  0  0  0  0  0  0  0  0  0  0
    5.7609   -1.0275    0.0000 C   0  0  0  0  0  0  0  0  0  0  0  0
    5.7609    0.4725    0.0000 N   0  0  0  0  0  0  0  0  0  0  0  0
    7.1875    0.9361    0.0000 N   0  0  0  0  0  0  0  0  0  0  0  0
    8.0692   -0.2775    0.0000 N   0  0  0  0  0  0  0  0  0  0  0  0
    7.1875   -1.4910    0.0000 N   0  0  0  0  0  0  0  0  0  0  0  0
    7.6510   -2.9176    0.0000 N   0  0  0  0  0  0  0  0  0  0  0  0
    9.0776   -3.3811    0.0000 C   0  0  0  0  0  0  0  0  0  0  0  0
    9.0776   -4.8811    0.0000 C   0  0  0  0  0  0  0  0  0  0  0  0
    7.6510   -5.3446    0.0000 N   0  0  0  0  0  0  0  0  0  0  0  0
    7.1875   -6.7712    0.0000 C   0  0  0  0  0  0  0  0  0  0  0  0
    8.1912   -7.8859    0.0000 O   0  0  0  0  0  0  0  0  0  0  0  0
    5.7203   -7.0831    0.0000 N   0  0  0  0  0  0  0  0  0  0  0  0
    5.2567   -8.5097    0.0000 C   0  0  0  0  0  0  0  0  0  0  0  0
    3.7895   -8.8215    0.0000 N   0  0  0  0  0  0  0  0  0  0  0  0
    3.3260  -10.2481    0.0000 N   0  0  0  0  0  0  0  0  0  0  0  0
    4.3297  -11.3628    0.0000 N   0  0  0  0  0  0  0  0  0  0  0  0
    5.7969  -11.0510    0.0000 N   0  0  0  0  0  0  0  0  0  0  0  0
    6.2604   -9.6244    0.0000 N   0  0  0  0  0  0  0  0  0  0  0  0
    6.7693   -4.1311    0.0000 C   0  0  0  0  0  0  0  0  0  0  0  0
    5.2693   -4.1311    0.0000 O   0  0  0  0  0  0  0  0  0  0  0  0
    0.7500   -1.2990    0.0000 C   0  0  0  0  0  0  0  0  0  0  0  0
    1.5000    0.0000    0.0000 C   0  0  0  0  0  0  0  0  0  0  0  0
    0.7500    1.2990    0.0000 C   0  0  0  0  0  0  0  0  0  0  0  0
   -0.7500    1.2990    0.0000 C   0  0  0  0  0  0  0  0  0  0  0  0
   -1.5000    0.0000    0.0000 C   0  0  0  0  0  0  0  0  0  0  0  0
   -0.7500   -1.2990    0.0000 C   0  0  0  0  0  0  0  0  0  0  0  0
   -1.9635   -2.1807    0.0000 C   0  0  0  0  0  0  0  0  0  0  0  0
   -2.9672   -1.0660    0.0000 C   0  0  0  0  0  0  0  0  0  0  0  0
   -4.4344   -1.3779    0.0000 C   0  0  0  0  0  0  0  0  0  0  0  0
   -4.8980   -2.8045    0.0000 C   0  0  0  0  0  0  0  0  0  0  0  0
   -3.8943   -3.9192    0.0000 C   0  0  0  0  0  0  0  0  0  0  0  0
   -2.4271   -3.6073    0.0000 C   0  0  0  0  0  0  0  0  0  0  0  0
  1  2  1  0
  2  3  1  0
  3  4  2  0
  4  5  1  0
  5  6  1  0
  6  7  1  0
  7  8  1  0
  8  9  2  0
  8 10  1  0
 10 11  1  0
 11 12  2  0
 12 13  1  0
 13 14  2  0
 14 15  1  0
 15 16  1  0
 16 17  1  0
 17 18  1  0
 18 19  1  0
 19 20  1  0
 20 21  2  0
 20 22  1  0
 22 23  1  0
 23 24  2  0
 24 25  1  0
 25 26  2  0
 26 27  1  0
 27 28  2  0
 19 29  1  0
 29 30  2  0
  7 31  1  0
 31 32  2  0
 32 33  1  0
 33 34  2  0
 34 35  1  0
 35 36  2  0
 36 37  1  0
 37 38  2  0
 38 39  1  0
 39 40  2  0
 40 41  1  0
 41 42  2  0
 42  2  1  0
 15 11  1  0
 29 16  1  0
 36 31  1  0
 42 37  1  0
 28 23  1  0
M  END
>  <Title>  (134) 
idAADFgen14

$$$$

     RDKit          2D

 39 43  0  0  0  0  0  0  0  0999 V2000
   12.0000    5.1962    0.0000 C   0  0  0  0  0  0  0  0  0  0  0  0
   10.5000    5.1962    0.0000 C   0  0  0  0  0  0  0  0  0  0  0  0
    9.7500    6.4952    0.0000 O   0  0  0  0  0  0  0  0  0  0  0  0
    9.7500    3.8971    0.0000 N   0  0  0  0  0  0  0  0  0  0  0  0
    8.2500    3.8971    0.0000 C   0  0  0  0  0  0  0  0  0  0  0  0
    7.5000    2.5981    0.0000 C   0  0  0  0  0  0  0  0  0  0  0  0
    8.2500    1.2990    0.0000 C   0  0  0  0  0  0  0  0  0  0  0  0
    7.5000    0.0000    0.0000 C   0  0  0  0  0  0  0  0  0  0  0  0
    6.0000    0.0000    0.0000 C   0  0  0  0  0  0  0  0  0  0  0  0
    5.2500   -1.2990    0.0000 O   0  0  0  0  0  0  0  0  0  0  0  0
    6.0000   -2.5981    0.0000 C   0  0  0  0  0  0  0  0  0  0  0  0
    7.5000   -2.5981    0.0000 O   0  0  0  0  0  0  0  0  0  0  0  0
    5.2500   -3.8971    0.0000 N   0  0  0  0  0  0  0  0  0  0  0  0
    6.0000   -5.1962    0.0000 C   0  0  0  0  0  0  0  0  0  0  0  0
    7.4918   -5.3529    0.0000 N   0  0  0  0  0  0  0  0  0  0  0  0
    7.8037   -6.8202    0.0000 N   0  0  0  0  0  0  0  0  0  0  0  0
    6.5046   -7.5702    0.0000 N   0  0  0  0  0  0  0  0  0  0  0  0
    5.3899   -6.5665    0.0000 N   0  0  0  0  0  0  0  0  0  0  0  0
    3.9227   -6.8783    0.0000 N   0  0  0  0  0  0  0  0  0  0  0  0
    2.8080   -5.8746    0.0000 C   0  0  0  0  0  0  0  0  0  0  0  0
    1.5089   -6.6246    0.0000 C   0  0  0  0  0  0  0  0  0  0  0  0
    1.8208   -8.0919    0.0000 N   0  0  0  0  0  0  0  0  0  0  0  0
    0.8171   -9.2066    0.0000 C   0  0  0  0  0  0  0  0  0  0  0  0
    1.2806  -10.6332    0.0000 O   0  0  0  0  0  0  0  0  0  0  0  0
   -0.6501   -8.8947    0.0000 N   0  0  0  0  0  0  0  0  0  0  0  0
   -1.1137   -7.4681    0.0000 C   0  0  0  0  0  0  0  0  0  0  0  0
   -2.5809   -7.1563    0.0000 N   0  0  0  0  0  0  0  0  0  0  0  0
   -3.0444   -5.7297    0.0000 N   0  0  0  0  0  0  0  0  0  0  0  0
   -2.0407   -4.6150    0.0000 N   0  0  0  0  0  0  0  0  0  0  0  0
   -0.5735   -4.9268    0.0000 N   0  0  0  0  0  0  0  0  0  0  0  0
   -0.1100   -6.3534    0.0000 N   0  0  0  0  0  0  0  0  0  0  0  0
    3.3126   -8.2487    0.0000 C   0  0  0  0  0  0  0  0  0  0  0  0
    4.0626   -9.5477    0.0000 O   0  0  0  0  0  0  0  0  0  0  0  0
    5.2500    1.2990    0.0000 C   0  0  0  0  0  0  0  0  0  0  0  0
    3.7500    1.2990    0.0000 C   0  0  0  0  0  0  0  0  0  0  0  0
    3.0000    2.5981    0.0000 C   0  0  0  0  0  0  0  0  0  0  0  0
    3.7500    3.8971    0.0000 C   0  0  0  0  0  0  0  0  0  0  0  0
    5.2500    3.8971    0.0000 C   0  0  0  0  0  0  0  0  0  0  0  0
    6.0000    2.5981    0.0000 C   0  0  0  0  0  0  0  0  0  0  0  0
  1  2  1  0
  2  3  2  0
  2  4  1  0
  4  5  1  0
  5  6  1  0
  6  7  2  0
  7  8  1  0
  8  9  2  0
  9 10  1  0
 10 11  1  0
 11 12  2  0
 11 13  1  0
 13 14  1  0
 14 15  2  0
 15 16  1  0
 16 17  2  0
 17 18  1  0
 18 19  1  0
 19 20  1  0
 20 21  1  0
 21 22  1  0
 22 23  1  0
 23 24  2  0
 23 25  1  0
 25 26  1  0
 26 27  2  0
 27 28  1  0
 28 29  2  0
 29 30  1  0
 30 31  2  0
 22 32  1  0
 32 33  2  0
  9 34  1  0
 34 35  2  0
 35 36  1  0
 36 37  2  0
 37 38  1  0
 38 39  2  0
 39  6  1  0
 18 14  1  0
 32 19  1  0
 39 34  1  0
 31 26  1  0
M  END
>  <Title>  (135) 
idAADGgen14

$$$$

     RDKit          2D

 42 48  0  0  0  0  0  0  0  0999 V2000
    5.3686   -3.7837    0.0000 C   0  0  0  0  0  0  0  0  0  0  0  0
    3.9258   -4.1942    0.0000 C   0  0  0  0  0  0  0  0  0  0  0  0
    3.2572   -2.8514    0.0000 C   0  0  0  0  0  0  0  0  0  0  0  0
    2.1487   -1.8409    0.0000 N   0  0  0  0  0  0  0  0  0  0  0  0
    0.7500   -1.2990    0.0000 C   0  0  0  0  0  0  0  0  0  0  0  0
    1.5000    0.0000    0.0000 C   0  0  0  0  0  0  0  0  0  0  0  0
    0.7500    1.2990    0.0000 C   0  0  0  0  0  0  0  0  0  0  0  0
   -0.7500    1.2990    0.0000 C   0  0  0  0  0  0  0  0  0  0  0  0
   -1.5000    0.0000    0.0000 C   0  0  0  0  0  0  0  0  0  0  0  0
   -0.7500   -1.2990    0.0000 C   0  0  0  0  0  0  0  0  0  0  0  0
   -2.1487   -1.8409    0.0000 C   0  0  0  0  0  0  0  0  0  0  0  0
   -3.2572   -2.8514    0.0000 C   0  0  0  0  0  0  0  0  0  0  0  0
   -4.0858   -1.6010    0.0000 C   0  0  0  0  0  0  0  0  0  0  0  0
   -5.5829   -1.6934    0.0000 C   0  0  0  0  0  0  0  0  0  0  0  0
   -6.2515   -3.0361    0.0000 C   0  0  0  0  0  0  0  0  0  0  0  0
   -5.4230   -4.2865    0.0000 N   0  0  0  0  0  0  0  0  0  0  0  0
   -3.9258   -4.1942    0.0000 C   0  0  0  0  0  0  0  0  0  0  0  0
   -4.0642   -5.6878    0.0000 C   0  0  0  0  0  0  0  0  0  0  0  0
   -3.6537   -7.1305    0.0000 C   0  0  0  0  0  0  0  0  0  0  0  0
   -5.1424   -7.3149    0.0000 C   0  0  0  0  0  0  0  0  0  0  0  0
   -5.7270   -8.6962    0.0000 C   0  0  0  0  0  0  0  0  0  0  0  0
   -4.8231   -9.8932    0.0000 C   0  0  0  0  0  0  0  0  0  0  0  0
   -3.3345   -9.7089    0.0000 C   0  0  0  0  0  0  0  0  0  0  0  0
   -2.7498   -8.3276    0.0000 C   0  0  0  0  0  0  0  0  0  0  0  0
   -1.4745   -9.1172    0.0000 C   0  0  0  0  0  0  0  0  0  0  0  0
   -2.4504  -10.2563    0.0000 C   0  0  0  0  0  0  0  0  0  0  0  0
   -1.9519  -11.6710    0.0000 C   0  0  0  0  0  0  0  0  0  0  0  0
   -0.4774  -11.9467    0.0000 C   0  0  0  0  0  0  0  0  0  0  0  0
    0.4985  -10.8076    0.0000 C   0  0  0  0  0  0  0  0  0  0  0  0
   -0.0000   -9.3928    0.0000 C   0  0  0  0  0  0  0  0  0  0  0  0
    1.4745   -9.1172    0.0000 C   0  0  0  0  0  0  0  0  0  0  0  0
    1.5207  -10.6165    0.0000 C   0  0  0  0  0  0  0  0  0  0  0  0
    2.8422  -11.3261    0.0000 C   0  0  0  0  0  0  0  0  0  0  0  0
    4.1175  -10.5365    0.0000 C   0  0  0  0  0  0  0  0  0  0  0  0
    4.0713   -9.0372    0.0000 C   0  0  0  0  0  0  0  0  0  0  0  0
    2.7498   -8.3276    0.0000 C   0  0  0  0  0  0  0  0  0  0  0  0
    3.6537   -7.1305    0.0000 C   0  0  0  0  0  0  0  0  0  0  0  0
    4.6979   -8.2074    0.0000 C   0  0  0  0  0  0  0  0  0  0  0  0
    6.1526   -7.8415    0.0000 C   0  0  0  0  0  0  0  0  0  0  0  0
    6.5631   -6.3988    0.0000 C   0  0  0  0  0  0  0  0  0  0  0  0
    5.5189   -5.3219    0.0000 C   0  0  0  0  0  0  0  0  0  0  0  0
    4.0642   -5.6878    0.0000 C   0  0  0  0  0  0  0  0  0  0  0  0
  1  2  1  0
  2  3  1  0
  3  4  1  0
  4  5  1  0
  5  6  2  0
  6  7  1  0
  7  8  2  0
  8  9  1  0
  9 10  2  0
 10 11  1  0
 11 12  1  0
 12 13  2  0
 13 14  1  0
 14 15  2  0
 15 16  1  0
 16 17  2  0
 17 18  1  0
 18 19  1  0
 19 20  2  0
 20 21  1  0
 21 22  2  0
 22 23  1  0
 23 24  2  0
 24 25  1  0
 25 26  2  0
 26 27  1  0
 27 28  2  0
 28 29  1  0
 29 30  2  0
 30 31  1  0
 31 32  2  0
 32 33  1  0
 33 34  2  0
 34 35  1  0
 35 36  2  0
 36 37  1  0
 37 38  2  0
 38 39  1  0
 39 40  2  0
 40 41  1  0
 41 42  2  0
 42  2  1  0
 10  5  1  0
 17 12  1  0
 24 19  1  0
 30 25  1  0
 36 31  1  0
 42 37  1  0
M  END
>  <Title>  (136) 
idAADHgen14

$$$$

     RDKit          2D

 11 11  0  0  0  0  0  0  0  0999 V2000
    6.0000   -2.5981    0.0000 C   0  0  0  0  0  0  0  0  0  0  0  0
    5.2500   -1.2990    0.0000 C   0  0  0  0  0  0  0  0  0  0  0  0
    6.0000    0.0000    0.0000 O   0  0  0  0  0  0  0  0  0  0  0  0
    3.7500   -1.2990    0.0000 N   0  0  0  0  0  0  0  0  0  0  0  0
    3.0000    0.0000    0.0000 C   0  0  0  0  0  0  0  0  0  0  0  0
    1.5000    0.0000    0.0000 C   0  0  0  0  0  0  0  0  0  0  0  0
    0.7500   -1.2990    0.0000 C   0  0  0  0  0  0  0  0  0  0  0  0
   -0.7500   -1.2990    0.0000 C   0  0  0  0  0  0  0  0  0  0  0  0
   -1.5000    0.0000    0.0000 C   0  0  0  0  0  0  0  0  0  0  0  0
   -0.7500    1.2990    0.0000 N   0  0  0  0  0  0  0  0  0  0  0  0
    0.7500    1.2990    0.0000 C   0  0  0  0  0  0  0  0  0  0  0  0
  1  2  1  0
  2  3  2  0
  2  4  1  0
  4  5  1  0
  5  6  1  0
  6  7  2  0
  7  8  1  0
  8  9  2  0
  9 10  1  0
 10 11  2  0
 11  6  1  0
M  END
>  <Title>  (137) 
idAADIgen14

$$$$

     RDKit          2D

 38 42  0  0  0  0  0  0  0  0999 V2000
   -5.6303   -2.9038    0.0000 C   0  0  0  0  0  0  0  0  0  0  0  0
   -4.1679   -3.2376    0.0000 C   0  0  0  0  0  0  0  0  0  0  0  0
   -3.1476   -2.1380    0.0000 C   0  0  0  0  0  0  0  0  0  0  0  0
   -1.6852   -2.4718    0.0000 C   0  0  0  0  0  0  0  0  0  0  0  0
   -1.3515   -3.9342    0.0000 C   0  0  0  0  0  0  0  0  0  0  0  0
   -0.0000   -4.5850    0.0000 C   0  0  0  0  0  0  0  0  0  0  0  0
   -0.0000   -6.0850    0.0000 C   0  0  0  0  0  0  0  0  0  0  0  0
    1.2990   -6.8350    0.0000 O   0  0  0  0  0  0  0  0  0  0  0  0
   -1.2990   -6.8350    0.0000 N   0  0  0  0  0  0  0  0  0  0  0  0
   -1.2990   -8.3350    0.0000 C   0  0  0  0  0  0  0  0  0  0  0  0
   -0.0855   -9.2167    0.0000 N   0  0  0  0  0  0  0  0  0  0  0  0
   -0.5490  -10.6433    0.0000 N   0  0  0  0  0  0  0  0  0  0  0  0
   -2.0490  -10.6433    0.0000 N   0  0  0  0  0  0  0  0  0  0  0  0
   -2.5126   -9.2167    0.0000 N   0  0  0  0  0  0  0  0  0  0  0  0
   -3.9391   -8.7532    0.0000 N   0  0  0  0  0  0  0  0  0  0  0  0
   -5.1527   -9.6348    0.0000 C   0  0  0  0  0  0  0  0  0  0  0  0
   -6.3662   -8.7532    0.0000 C   0  0  0  0  0  0  0  0  0  0  0  0
   -5.9027   -7.3266    0.0000 N   0  0  0  0  0  0  0  0  0  0  0  0
   -6.7844   -6.1130    0.0000 C   0  0  0  0  0  0  0  0  0  0  0  0
   -6.1742   -4.7427    0.0000 O   0  0  0  0  0  0  0  0  0  0  0  0
   -8.2761   -6.2698    0.0000 N   0  0  0  0  0  0  0  0  0  0  0  0
   -9.1578   -5.0563    0.0000 C   0  0  0  0  0  0  0  0  0  0  0  0
   -8.5477   -3.6860    0.0000 N   0  0  0  0  0  0  0  0  0  0  0  0
   -9.4294   -2.4725    0.0000 N   0  0  0  0  0  0  0  0  0  0  0  0
  -10.9212   -2.6293    0.0000 N   0  0  0  0  0  0  0  0  0  0  0  0
  -11.5313   -3.9996    0.0000 N   0  0  0  0  0  0  0  0  0  0  0  0
  -10.6496   -5.2131    0.0000 N   0  0  0  0  0  0  0  0  0  0  0  0
   -4.4027   -7.3266    0.0000 C   0  0  0  0  0  0  0  0  0  0  0  0
   -3.5210   -6.1130    0.0000 O   0  0  0  0  0  0  0  0  0  0  0  0
    1.3515   -3.9342    0.0000 C   0  0  0  0  0  0  0  0  0  0  0  0
    2.5242   -4.8694    0.0000 O   0  0  0  0  0  0  0  0  0  0  0  0
    1.6852   -2.4718    0.0000 O   0  0  0  0  0  0  0  0  0  0  0  0
    0.7500   -1.2990    0.0000 C   0  0  0  0  0  0  0  0  0  0  0  0
    1.5000    0.0000    0.0000 C   0  0  0  0  0  0  0  0  0  0  0  0
    0.7500    1.2990    0.0000 C   0  0  0  0  0  0  0  0  0  0  0  0
   -0.7500    1.2990    0.0000 C   0  0  0  0  0  0  0  0  0  0  0  0
   -1.5000    0.0000    0.0000 C   0  0  0  0  0  0  0  0  0  0  0  0
   -0.7500   -1.2990    0.0000 C   0  0  0  0  0  0  0  0  0  0  0  0
  1  2  1  0
  2  3  1  0
  3  4  1  0
  4  5  2  0
  5  6  1  0
  6  7  1  0
  7  8  2  0
  7  9  1  0
  9 10  1  0
 10 11  2  0
 11 12  1  0
 12 13  2  0
 13 14  1  0
 14 15  1  0
 15 16  1  0
 16 17  1  0
 17 18  1  0
 18 19  1  0
 19 20  2  0
 19 21  1  0
 21 22  1  0
 22 23  2  0
 23 24  1  0
 24 25  2  0
 25 26  1  0
 26 27  2  0
 18 28  1  0
 28 29  2  0
  6 30  1  0
 30 31  2  0
 30 32  1  0
 32 33  1  0
 33 34  2  0
 34 35  1  0
 35 36  2  0
 36 37  1  0
 37 38  2  0
 38  4  1  0
 14 10  1  0
 28 15  1  0
 38 33  1  0
 27 22  1  0
M  END
>  <Title>  (138) 
idAADJgen14

$$$$

     RDKit          2D

 14 14  0  0  0  0  0  0  0  0999 V2000
    7.5000   -2.5981    0.0000 C   0  0  0  0  0  0  0  0  0  0  0  0
    6.0000   -2.5981    0.0000 C   0  0  0  0  0  0  0  0  0  0  0  0
    5.2500   -3.8971    0.0000 C   0  0  0  0  0  0  0  0  0  0  0  0
    5.2500   -1.2990    0.0000 C   0  0  0  0  0  0  0  0  0  0  0  0
    3.7500   -1.2990    0.0000 C   0  0  0  0  0  0  0  0  0  0  0  0
    3.0000   -2.5981    0.0000 O   0  0  0  0  0  0  0  0  0  0  0  0
    3.0000    0.0000    0.0000 N   0  0  0  0  0  0  0  0  0  0  0  0
    1.5000    0.0000    0.0000 C   0  0  0  0  0  0  0  0  0  0  0  0
    0.7500   -1.2990    0.0000 C   0  0  0  0  0  0  0  0  0  0  0  0
   -0.7500   -1.2990    0.0000 C   0  0  0  0  0  0  0  0  0  0  0  0
   -1.5000    0.0000    0.0000 C   0  0  0  0  0  0  0  0  0  0  0  0
   -0.7500    1.2990    0.0000 C   0  0  0  0  0  0  0  0  0  0  0  0
    0.7500    1.2990    0.0000 C   0  0  0  0  0  0  0  0  0  0  0  0
    1.5000    2.5981    0.0000 C   0  0  0  0  0  0  0  0  0  0  0  0
  1  2  1  0
  2  3  1  0
  2  4  1  0
  4  5  1  0
  5  6  2  0
  5  7  1  0
  7  8  1  0
  8  9  1  0
  9 10  1  0
 10 11  1  0
 11 12  1  0
 12 13  1  0
 13 14  1  0
 13  8  1  0
M  END
>  <Title>  (139) 
idAADKgen14

$$$$

     RDKit          2D

 13 13  0  0  0  0  0  0  0  0999 V2000
    7.5000   -2.5981    0.0000 C   0  0  0  0  0  0  0  0  0  0  0  0
    6.0000   -2.5981    0.0000 C   0  0  0  0  0  0  0  0  0  0  0  0
    5.2500   -3.8971    0.0000 C   0  0  0  0  0  0  0  0  0  0  0  0
    5.2500   -1.2990    0.0000 N   0  0  0  0  0  0  0  0  0  0  0  0
    3.7500   -1.2990    0.0000 C   0  0  0  0  0  0  0  0  0  0  0  0
    3.0000   -2.5981    0.0000 O   0  0  0  0  0  0  0  0  0  0  0  0
    3.0000    0.0000    0.0000 C   0  0  0  0  0  0  0  0  0  0  0  0
    1.5000    0.0000    0.0000 C   0  0  0  0  0  0  0  0  0  0  0  0
    0.7500   -1.2990    0.0000 C   0  0  0  0  0  0  0  0  0  0  0  0
   -0.7500   -1.2990    0.0000 S   0  0  0  0  0  0  0  0  0  0  0  0
   -1.5000    0.0000    0.0000 C   0  0  0  0  0  0  0  0  0  0  0  0
   -0.7500    1.2990    0.0000 C   0  0  0  0  0  0  0  0  0  0  0  0
    0.7500    1.2990    0.0000 N   0  0  0  0  0  0  0  0  0  0  0  0
  1  2  1  0
  2  3  1  0
  2  4  1  0
  4  5  1  0
  5  6  2  0
  5  7  1  0
  7  8  1  0
  8  9  2  0
  9 10  1  0
 10 11  1  0
 11 12  1  0
 12 13  2  0
 13  8  1  0
M  END
>  <Title>  (140) 
idAADLgen14

$$$$

     RDKit          2D

 97 98  0  0  0  0  0  0  0  0999 V2000
    8.7297   -3.1564    0.0000 C   0  0  0  0  0  0  0  0  0  0  0  0
    9.4745   -4.4585    0.0000 C   0  0  0  0  0  0  0  0  0  0  0  0
   10.9745   -4.4645    0.0000 C   0  0  0  0  0  0  0  0  0  0  0  0
   11.0646   -5.9618    0.0000 C   0  0  0  0  0  0  0  0  0  0  0  0
   11.3454   -7.4353    0.0000 C   0  0  0  0  0  0  0  0  0  0  0  0
   11.8124   -8.8607    0.0000 C   0  0  0  0  0  0  0  0  0  0  0  0
   12.4578  -10.2148    0.0000 C   0  0  0  0  0  0  0  0  0  0  0  0
   13.2711  -11.4752    0.0000 C   0  0  0  0  0  0  0  0  0  0  0  0
   14.2388  -12.6212    0.0000 C   0  0  0  0  0  0  0  0  0  0  0  0
   15.3452  -13.6341    0.0000 C   0  0  0  0  0  0  0  0  0  0  0  0
   16.5720  -14.4972    0.0000 C   0  0  0  0  0  0  0  0  0  0  0  0
   17.8991  -15.1963    0.0000 C   0  0  0  0  0  0  0  0  0  0  0  0
   19.3047  -15.7200    0.0000 C   0  0  0  0  0  0  0  0  0  0  0  0
   20.7658  -16.0597    0.0000 C   0  0  0  0  0  0  0  0  0  0  0  0
   22.2582  -16.2097    0.0000 C   0  0  0  0  0  0  0  0  0  0  0  0
   23.7576  -16.1676    0.0000 C   0  0  0  0  0  0  0  0  0  0  0  0
   25.2394  -15.9342    0.0000 C   0  0  0  0  0  0  0  0  0  0  0  0
   26.6791  -15.5131    0.0000 C   0  0  0  0  0  0  0  0  0  0  0  0
   28.0531  -14.9115    0.0000 C   0  0  0  0  0  0  0  0  0  0  0  0
   29.3389  -14.1390    0.0000 C   0  0  0  0  0  0  0  0  0  0  0  0
   30.5154  -13.2085    0.0000 C   0  0  0  0  0  0  0  0  0  0  0  0
   31.5632  -12.1352    0.0000 C   0  0  0  0  0  0  0  0  0  0  0  0
   32.4652  -10.9366    0.0000 C   0  0  0  0  0  0  0  0  0  0  0  0
   33.2065   -9.6326    0.0000 C   0  0  0  0  0  0  0  0  0  0  0  0
   33.7750   -8.2445    0.0000 C   0  0  0  0  0  0  0  0  0  0  0  0
   34.1613   -6.7951    0.0000 C   0  0  0  0  0  0  0  0  0  0  0  0
   34.3591   -5.3082    0.0000 C   0  0  0  0  0  0  0  0  0  0  0  0
   34.3651   -3.8082    0.0000 C   0  0  0  0  0  0  0  0  0  0  0  0
   34.1792   -2.3198    0.0000 C   0  0  0  0  0  0  0  0  0  0  0  0
   33.8046   -0.8673    0.0000 C   0  0  0  0  0  0  0  0  0  0  0  0
   33.2472    0.5253    0.0000 C   0  0  0  0  0  0  0  0  0  0  0  0
   32.5164    1.8352    0.0000 C   0  0  0  0  0  0  0  0  0  0  0  0
   31.6241    3.0409    0.0000 C   0  0  0  0  0  0  0  0  0  0  0  0
   30.5849    4.1226    0.0000 C   0  0  0  0  0  0  0  0  0  0  0  0
   29.4159    5.0626    0.0000 C   0  0  0  0  0  0  0  0  0  0  0  0
   28.1363    5.8453    0.0000 C   0  0  0  0  0  0  0  0  0  0  0  0
   26.7671    6.4579    0.0000 C   0  0  0  0  0  0  0  0  0  0  0  0
   25.3308    6.8905    0.0000 C   0  0  0  0  0  0  0  0  0  0  0  0
   23.8510    7.1358    0.0000 C   0  0  0  0  0  0  0  0  0  0  0  0
   22.3520    7.1899    0.0000 C   0  0  0  0  0  0  0  0  0  0  0  0
   20.8584    7.0519    0.0000 C   0  0  0  0  0  0  0  0  0  0  0  0
   19.3947    6.7239    0.0000 C   0  0  0  0  0  0  0  0  0  0  0  0
   17.9849    6.2115    0.0000 C   0  0  0  0  0  0  0  0  0  0  0  0
   16.6522    5.5231    0.0000 C   0  0  0  0  0  0  0  0  0  0  0  0
   15.4185    4.6698    0.0000 C   0  0  0  0  0  0  0  0  0  0  0  0
   14.3041    3.6658    0.0000 C   0  0  0  0  0  0  0  0  0  0  0  0
   13.3272    2.5276    0.0000 C   0  0  0  0  0  0  0  0  0  0  0  0
   12.5038    1.2737    0.0000 C   0  0  0  0  0  0  0  0  0  0  0  0
   11.8476   -0.0751    0.0000 C   0  0  0  0  0  0  0  0  0  0  0  0
   11.3692   -1.4968    0.0000 C   0  0  0  0  0  0  0  0  0  0  0  0
   10.7673   -0.0000    0.0000 C   0  0  0  0  0  0  0  0  0  0  0  0
   10.6752    1.4054    0.0000 C   0  0  0  0  0  0  0  0  0  0  0  0
   10.4005    2.7868    0.0000 C   0  0  0  0  0  0  0  0  0  0  0  0
    9.9477    4.1205    0.0000 C   0  0  0  0  0  0  0  0  0  0  0  0
    9.3248    5.3837    0.0000 C   0  0  0  0  0  0  0  0  0  0  0  0
    8.5423    6.5547    0.0000 C   0  0  0  0  0  0  0  0  0  0  0  0
    7.6137    7.6137    0.0000 C   0  0  0  0  0  0  0  0  0  0  0  0
    6.5547    8.5423    0.0000 C   0  0  0  0  0  0  0  0  0  0  0  0
    5.3837    9.3248    0.0000 C   0  0  0  0  0  0  0  0  0  0  0  0
    4.1205    9.9477    0.0000 C   0  0  0  0  0  0  0  0  0  0  0  0
    2.7868   10.4005    0.0000 C   0  0  0  0  0  0  0  0  0  0  0  0
    1.4054   10.6752    0.0000 C   0  0  0  0  0  0  0  0  0  0  0  0
    0.0000   10.7673    0.0000 C   0  0  0  0  0  0  0  0  0  0  0  0
   -1.4054   10.6752    0.0000 C   0  0  0  0  0  0  0  0  0  0  0  0
   -2.7868   10.4005    0.0000 C   0  0  0  0  0  0  0  0  0  0  0  0
   -4.1205    9.9477    0.0000 C   0  0  0  0  0  0  0  0  0  0  0  0
   -5.3837    9.3248    0.0000 C   0  0  0  0  0  0  0  0  0  0  0  0
   -6.5547    8.5423    0.0000 C   0  0  0  0  0  0  0  0  0  0  0  0
   -7.6137    7.6137    0.0000 C   0  0  0  0  0  0  0  0  0  0  0  0
   -8.5423    6.5547    0.0000 C   0  0  0  0  0  0  0  0  0  0  0  0
   -9.3248    5.3837    0.0000 C   0  0  0  0  0  0  0  0  0  0  0  0
   -9.9477    4.1205    0.0000 C   0  0  0  0  0  0  0  0  0  0  0  0
  -10.4005    2.7868    0.0000 C   0  0  0  0  0  0  0  0  0  0  0  0
  -10.6752    1.4054    0.0000 C   0  0  0  0  0  0  0  0  0  0  0  0
  -10.7673    0.0000    0.0000 C   0  0  0  0  0  0  0  0  0  0  0  0
  -10.6752   -1.4054    0.0000 C   0  0  0  0  0  0  0  0  0  0  0  0
  -10.4005   -2.7868    0.0000 C   0  0  0  0  0  0  0  0  0  0  0  0
   -9.9477   -4.1205    0.0000 C   0  0  0  0  0  0  0  0  0  0  0  0
   -9.3248   -5.3837    0.0000 C   0  0  0  0  0  0  0  0  0  0  0  0
   -8.5423   -6.5547    0.0000 C   0  0  0  0  0  0  0  0  0  0  0  0
   -7.6137   -7.6137    0.0000 C   0  0  0  0  0  0  0  0  0  0  0  0
   -6.5547   -8.5423    0.0000 C   0  0  0  0  0  0  0  0  0  0  0  0
   -5.3837   -9.3248    0.0000 C   0  0  0  0  0  0  0  0  0  0  0  0
   -4.1205   -9.9477    0.0000 C   0  0  0  0  0  0  0  0  0  0  0  0
   -2.7868  -10.4005    0.0000 C   0  0  0  0  0  0  0  0  0  0  0  0
   -1.4054  -10.6752    0.0000 C   0  0  0  0  0  0  0  0  0  0  0  0
   -0.0000  -10.7673    0.0000 C   0  0  0  0  0  0  0  0  0  0  0  0
    1.4054  -10.6752    0.0000 C   0  0  0  0  0  0  0  0  0  0  0  0
    2.7868  -10.4005    0.0000 C   0  0  0  0  0  0  0  0  0  0  0  0
    4.1205   -9.9477    0.0000 C   0  0  0  0  0  0  0  0  0  0  0  0
    5.3837   -9.3248    0.0000 C   0  0  0  0  0  0  0  0  0  0  0  0
    6.5547   -8.5423    0.0000 C   0  0  0  0  0  0  0  0  0  0  0  0
    7.6137   -7.6137    0.0000 C   0  0  0  0  0  0  0  0  0  0  0  0
    8.5423   -6.5547    0.0000 C   0  0  0  0  0  0  0  0  0  0  0  0
    9.3248   -5.3837    0.0000 C   0  0  0  0  0  0  0  0  0  0  0  0
    9.9477   -4.1205    0.0000 C   0  0  0  0  0  0  0  0  0  0  0  0
   11.0766   -2.9680    0.0000 C   0  0  0  0  0  0  0  0  0  0  0  0
  1  2  1  0
  2  3  1  0
  3  4  1  0
  4  5  1  0
  5  6  1  0
  6  7  1  0
  7  8  1  0
  8  9  1  0
  9 10  1  0
 10 11  1  0
 11 12  1  0
 12 13  1  0
 13 14  1  0
 14 15  1  0
 15 16  1  0
 16 17  1  0
 17 18  1  0
 18 19  1  0
 19 20  1  0
 20 21  1  0
 21 22  1  0
 22 23  1  0
 23 24  1  0
 24 25  1  0
 25 26  1  0
 26 27  1  0
 27 28  1  0
 28 29  1  0
 29 30  1  0
 30 31  1  0
 31 32  1  0
 32 33  1  0
 33 34  1  0
 34 35  1  0
 35 36  1  0
 36 37  1  0
 37 38  1  0
 38 39  1  0
 39 40  1  0
 40 41  1  0
 41 42  1  0
 42 43  1  0
 43 44  1  0
 44 45  1  0
 45 46  1  0
 46 47  1  0
 47 48  1  0
 48 49  1  0
 49 50  1  0
 50 51  1  0
 51 52  1  0
 52 53  1  0
 53 54  1  0
 54 55  1  0
 55 56  1  0
 56 57  1  0
 57 58  1  0
 58 59  1  0
 59 60  1  0
 60 61  1  0
 61 62  1  0
 62 63  1  0
 63 64  1  0
 64 65  1  0
 65 66  1  0
 66 67  1  0
 67 68  1  0
 68 69  1  0
 69 70  1  0
 70 71  1  0
 71 72  1  0
 72 73  1  0
 73 74  1  0
 74 75  1  0
 75 76  1  0
 76 77  1  0
 77 78  1  0
 78 79  1  0
 79 80  1  0
 80 81  1  0
 81 82  1  0
 82 83  2  0
 83 84  1  0
 84 85  2  0
 85 86  1  0
 86 87  2  0
 87 88  1  0
 88 89  2  0
 89 90  1  0
 90 91  2  0
 91 92  1  0
 92 93  2  0
 93 94  1  0
 94 95  2  0
 95 96  1  0
 96 97  2  0
 97  3  1  0
 97 50  1  0
M  END
>  <Title>  (141) 
idAADMgen14

$$$$

     RDKit          2D

 13 13  0  0  0  0  0  0  0  0999 V2000
    8.2500   -3.8971    0.0000 C   0  0  0  0  0  0  0  0  0  0  0  0
    7.5000   -2.5981    0.0000 C   0  0  0  0  0  0  0  0  0  0  0  0
    6.0000   -2.5981    0.0000 C   0  0  0  0  0  0  0  0  0  0  0  0
    5.2500   -1.2990    0.0000 N   0  0  0  0  0  0  0  0  0  0  0  0
    3.7500   -1.2990    0.0000 C   0  0  0  0  0  0  0  0  0  0  0  0
    3.0000   -2.5981    0.0000 O   0  0  0  0  0  0  0  0  0  0  0  0
    3.0000    0.0000    0.0000 C   0  0  0  0  0  0  0  0  0  0  0  0
    1.5000    0.0000    0.0000 C   0  0  0  0  0  0  0  0  0  0  0  0
    0.7500   -1.2990    0.0000 C   0  0  0  0  0  0  0  0  0  0  0  0
   -0.7500   -1.2990    0.0000 S   0  0  0  0  0  0  0  0  0  0  0  0
   -1.5000    0.0000    0.0000 C   0  0  0  0  0  0  0  0  0  0  0  0
   -0.7500    1.2990    0.0000 C   0  0  0  0  0  0  0  0  0  0  0  0
    0.7500    1.2990    0.0000 N   0  0  0  0  0  0  0  0  0  0  0  0
  1  2  1  0
  2  3  2  3
  3  4  1  0
  4  5  1  0
  5  6  2  0
  5  7  1  0
  7  8  1  0
  8  9  2  0
  9 10  1  0
 10 11  1  0
 11 12  1  0
 12 13  2  0
 13  8  1  0
M  END
>  <Title>  (142) 
idAADNgen14

$$$$

     RDKit          2D

  8  7  0  0  0  0  0  0  0  0999 V2000
    0.0000    0.0000    0.0000 C   0  0  0  0  0  0  0  0  0  0  0  0
    1.2990    0.7500    0.0000 C   0  0  0  0  0  0  0  0  0  0  0  0
    2.5981   -0.0000    0.0000 C   0  0  0  0  0  0  0  0  0  0  0  0
    3.8971    0.7500    0.0000 N   0  0  0  0  0  0  0  0  0  0  0  0
    5.1962   -0.0000    0.0000 C   0  0  0  0  0  0  0  0  0  0  0  0
    6.4952    0.7500    0.0000 C   0  0  0  0  0  0  0  0  0  0  0  0
    7.7942   -0.0000    0.0000 C   0  0  0  0  0  0  0  0  0  0  0  0
    6.4952    2.2500    0.0000 C   0  0  0  0  0  0  0  0  0  0  0  0
  1  2  1  0
  2  3  2  3
  3  4  1  0
  4  5  1  0
  5  6  1  0
  6  7  1  0
  6  8  1  0
M  END
>  <Title>  (143) 
idAADOgen14

$$$$

     RDKit          2D

 39 44  0  0  0  0  0  0  0  0999 V2000
   -0.0000   -6.0850    0.0000 C   0  0  0  0  0  0  0  0  0  0  0  0
   -0.0000   -4.5850    0.0000 C   0  0  0  0  0  0  0  0  0  0  0  0
    1.3515   -3.9342    0.0000 C   0  0  0  0  0  0  0  0  0  0  0  0
    1.6852   -2.4718    0.0000 C   0  0  0  0  0  0  0  0  0  0  0  0
    3.1476   -2.1380    0.0000 C   0  0  0  0  0  0  0  0  0  0  0  0
    3.5898   -0.7046    0.0000 O   0  0  0  0  0  0  0  0  0  0  0  0
    4.1679   -3.2376    0.0000 N   0  0  0  0  0  0  0  0  0  0  0  0
    5.6303   -2.9038    0.0000 C   0  0  0  0  0  0  0  0  0  0  0  0
    6.2198   -1.5245    0.0000 N   0  0  0  0  0  0  0  0  0  0  0  0
    7.7138   -1.6590    0.0000 N   0  0  0  0  0  0  0  0  0  0  0  0
    8.0476   -3.1214    0.0000 N   0  0  0  0  0  0  0  0  0  0  0  0
    6.7599   -3.8907    0.0000 N   0  0  0  0  0  0  0  0  0  0  0  0
    6.6254   -5.3847    0.0000 N   0  0  0  0  0  0  0  0  0  0  0  0
    7.7550   -6.3716    0.0000 C   0  0  0  0  0  0  0  0  0  0  0  0
    7.1655   -7.7509    0.0000 C   0  0  0  0  0  0  0  0  0  0  0  0
    5.6715   -7.6164    0.0000 C   0  0  0  0  0  0  0  0  0  0  0  0
    4.6846   -8.7460    0.0000 C   0  0  0  0  0  0  0  0  0  0  0  0
    5.1694  -10.1655    0.0000 O   0  0  0  0  0  0  0  0  0  0  0  0
    3.2129   -8.4561    0.0000 N   0  0  0  0  0  0  0  0  0  0  0  0
    2.2260   -9.5857    0.0000 C   0  0  0  0  0  0  0  0  0  0  0  0
    0.7543   -9.2959    0.0000 N   0  0  0  0  0  0  0  0  0  0  0  0
   -0.2326  -10.4255    0.0000 N   0  0  0  0  0  0  0  0  0  0  0  0
    0.2522  -11.8450    0.0000 N   0  0  0  0  0  0  0  0  0  0  0  0
    1.7239  -12.1348    0.0000 N   0  0  0  0  0  0  0  0  0  0  0  0
    2.7108  -11.0052    0.0000 N   0  0  0  0  0  0  0  0  0  0  0  0
    5.3378   -6.1540    0.0000 C   0  0  0  0  0  0  0  0  0  0  0  0
    3.9585   -5.5645    0.0000 O   0  0  0  0  0  0  0  0  0  0  0  0
    0.7500   -1.2990    0.0000 C   0  0  0  0  0  0  0  0  0  0  0  0
    1.5000    0.0000    0.0000 C   0  0  0  0  0  0  0  0  0  0  0  0
    0.7500    1.2990    0.0000 C   0  0  0  0  0  0  0  0  0  0  0  0
   -0.7500    1.2990    0.0000 C   0  0  0  0  0  0  0  0  0  0  0  0
   -1.5000    0.0000    0.0000 C   0  0  0  0  0  0  0  0  0  0  0  0
   -0.7500   -1.2990    0.0000 C   0  0  0  0  0  0  0  0  0  0  0  0
   -1.6852   -2.4718    0.0000 C   0  0  0  0  0  0  0  0  0  0  0  0
   -3.1186   -2.0297    0.0000 C   0  0  0  0  0  0  0  0  0  0  0  0
   -4.2182   -3.0499    0.0000 C   0  0  0  0  0  0  0  0  0  0  0  0
   -3.8844   -4.5123    0.0000 C   0  0  0  0  0  0  0  0  0  0  0  0
   -2.4510   -4.9544    0.0000 C   0  0  0  0  0  0  0  0  0  0  0  0
   -1.3515   -3.9342    0.0000 C   0  0  0  0  0  0  0  0  0  0  0  0
  1  2  1  0
  2  3  2  0
  3  4  1  0
  4  5  1  0
  5  6  2  0
  5  7  1  0
  7  8  1  0
  8  9  2  0
  9 10  1  0
 10 11  2  0
 11 12  1  0
 12 13  1  0
 13 14  1  0
 14 15  1  0
 15 16  1  0
 16 17  1  0
 17 18  2  0
 17 19  1  0
 19 20  1  0
 20 21  2  0
 21 22  1  0
 22 23  2  0
 23 24  1  0
 24 25  2  0
 16 26  1  0
 26 27  2  0
  4 28  1  0
 28 29  2  0
 29 30  1  0
 30 31  2  0
 31 32  1  0
 32 33  2  0
 33 34  1  0
 34 35  2  0
 35 36  1  0
 36 37  2  0
 37 38  1  0
 38 39  2  0
 39  2  1  0
 12  8  1  0
 26 13  1  0
 33 28  1  0
 39 34  1  0
 25 20  1  0
M  END
>  <Title>  (144) 
idAADPgen14

$$$$

     RDKit          2D

 16 17  0  0  0  0  0  0  0  0999 V2000
    3.0000   -5.1962    0.0000 O   0  0  0  0  0  0  0  0  0  0  0  0
    1.5000   -5.1962    0.0000 C   0  0  0  0  0  0  0  0  0  0  0  0
    0.7500   -6.4952    0.0000 C   0  0  0  0  0  0  0  0  0  0  0  0
    1.5000   -7.7942    0.0000 C   0  0  0  0  0  0  0  0  0  0  0  0
    2.9918   -7.9510    0.0000 C   0  0  0  0  0  0  0  0  0  0  0  0
    3.3037   -9.4182    0.0000 C   0  0  0  0  0  0  0  0  0  0  0  0
    2.0046  -10.1682    0.0000 C   0  0  0  0  0  0  0  0  0  0  0  0
    0.8899   -9.1645    0.0000 N   0  0  0  0  0  0  0  0  0  0  0  0
    0.7500   -3.8971    0.0000 N   0  0  0  0  0  0  0  0  0  0  0  0
    1.5000   -2.5981    0.0000 C   0  0  0  0  0  0  0  0  0  0  0  0
    0.7500   -1.2990    0.0000 C   0  0  0  0  0  0  0  0  0  0  0  0
    1.5000    0.0000    0.0000 C   0  0  0  0  0  0  0  0  0  0  0  0
    0.7500    1.2990    0.0000 C   0  0  0  0  0  0  0  0  0  0  0  0
   -0.7500    1.2990    0.0000 C   0  0  0  0  0  0  0  0  0  0  0  0
   -1.5000    0.0000    0.0000 C   0  0  0  0  0  0  0  0  0  0  0  0
   -0.7500   -1.2990    0.0000 C   0  0  0  0  0  0  0  0  0  0  0  0
  1  2  1  0
  2  3  1  0
  3  4  1  0
  4  5  2  0
  5  6  1  0
  6  7  1  0
  7  8  2  0
  2  9  1  0
  9 10  1  0
 10 11  1  0
 11 12  2  0
 12 13  1  0
 13 14  2  0
 14 15  1  0
 15 16  2  0
  8  4  1  0
 16 11  1  0
M  END
>  <Title>  (145) 
idAADQgen14

$$$$

     RDKit          2D

 34 38  0  0  0  0  0  0  0  0999 V2000
   10.0051   -0.5013    0.0000 C   0  0  0  0  0  0  0  0  0  0  0  0
    8.5134   -0.6581    0.0000 N   0  0  0  0  0  0  0  0  0  0  0  0
    7.7634   -1.9571    0.0000 C   0  0  0  0  0  0  0  0  0  0  0  0
    6.2961   -1.6453    0.0000 C   0  0  0  0  0  0  0  0  0  0  0  0
    5.1814   -2.6490    0.0000 C   0  0  0  0  0  0  0  0  0  0  0  0
    5.4933   -4.1162    0.0000 C   0  0  0  0  0  0  0  0  0  0  0  0
    6.9199   -4.5797    0.0000 O   0  0  0  0  0  0  0  0  0  0  0  0
    4.3786   -5.1199    0.0000 N   0  0  0  0  0  0  0  0  0  0  0  0
    4.6904   -6.5871    0.0000 C   0  0  0  0  0  0  0  0  0  0  0  0
    6.0607   -7.1972    0.0000 N   0  0  0  0  0  0  0  0  0  0  0  0
    5.9040   -8.6890    0.0000 N   0  0  0  0  0  0  0  0  0  0  0  0
    4.4367   -9.0009    0.0000 N   0  0  0  0  0  0  0  0  0  0  0  0
    3.6867   -7.7018    0.0000 N   0  0  0  0  0  0  0  0  0  0  0  0
    2.1950   -7.5450    0.0000 N   0  0  0  0  0  0  0  0  0  0  0  0
    1.4450   -6.2460    0.0000 C   0  0  0  0  0  0  0  0  0  0  0  0
   -0.0223   -6.5579    0.0000 C   0  0  0  0  0  0  0  0  0  0  0  0
   -0.1791   -8.0497    0.0000 N   0  0  0  0  0  0  0  0  0  0  0  0
   -1.4781   -8.7997    0.0000 C   0  0  0  0  0  0  0  0  0  0  0  0
   -1.4781  -10.2997    0.0000 O   0  0  0  0  0  0  0  0  0  0  0  0
   -2.7771   -8.0497    0.0000 N   0  0  0  0  0  0  0  0  0  0  0  0
   -4.0762   -8.7997    0.0000 C   0  0  0  0  0  0  0  0  0  0  0  0
   -4.0762  -10.2997    0.0000 N   0  0  0  0  0  0  0  0  0  0  0  0
   -5.3752  -11.0497    0.0000 N   0  0  0  0  0  0  0  0  0  0  0  0
   -6.6743  -10.2997    0.0000 N   0  0  0  0  0  0  0  0  0  0  0  0
   -6.6743   -8.7997    0.0000 N   0  0  0  0  0  0  0  0  0  0  0  0
   -5.3752   -8.0497    0.0000 N   0  0  0  0  0  0  0  0  0  0  0  0
    1.1913   -8.6598    0.0000 C   0  0  0  0  0  0  0  0  0  0  0  0
    1.5031  -10.1270    0.0000 O   0  0  0  0  0  0  0  0  0  0  0  0
    6.1393   -0.1535    0.0000 C   0  0  0  0  0  0  0  0  0  0  0  0
    4.9258    0.7282    0.0000 C   0  0  0  0  0  0  0  0  0  0  0  0
    5.0826    2.2200    0.0000 C   0  0  0  0  0  0  0  0  0  0  0  0
    6.4529    2.8301    0.0000 C   0  0  0  0  0  0  0  0  0  0  0  0
    7.6664    1.9484    0.0000 C   0  0  0  0  0  0  0  0  0  0  0  0
    7.5097    0.4566    0.0000 C   0  0  0  0  0  0  0  0  0  0  0  0
  1  2  1  0
  2  3  1  0
  3  4  2  0
  4  5  1  0
  5  6  1  0
  6  7  2  0
  6  8  1  0
  8  9  1  0
  9 10  2  0
 10 11  1  0
 11 12  2  0
 12 13  1  0
 13 14  1  0
 14 15  1  0
 15 16  1  0
 16 17  1  0
 17 18  1  0
 18 19  2  0
 18 20  1  0
 20 21  1  0
 21 22  2  0
 22 23  1  0
 23 24  2  0
 24 25  1  0
 25 26  2  0
 17 27  1  0
 27 28  2  0
  4 29  1  0
 29 30  2  0
 30 31  1  0
 31 32  2  0
 32 33  1  0
 33 34  2  0
 34  2  1  0
 13  9  1  0
 27 14  1  0
 34 29  1  0
 26 21  1  0
M  END
>  <Title>  (146) 
idAADRgen14

$$$$

     RDKit          2D

  7  6  0  0  0  0  0  0  0  0999 V2000
    0.0000    0.0000    0.0000 C   0  0  0  0  0  0  0  0  0  0  0  0
    1.2990    0.7500    0.0000 C   0  0  0  0  0  0  0  0  0  0  0  0
    1.2990    2.2500    0.0000 O   0  0  0  0  0  0  0  0  0  0  0  0
    2.5981   -0.0000    0.0000 C   0  0  0  0  0  0  0  0  0  0  0  0
    3.8971    0.7500    0.0000 C   0  0  0  0  0  0  0  0  0  0  0  0
    5.1962   -0.0000    0.0000 C   0  0  0  0  0  0  0  0  0  0  0  0
    3.8971    2.2500    0.0000 F   0  0  0  0  0  0  0  0  0  0  0  0
  1  2  1  0
  2  3  1  0
  2  4  1  0
  4  5  1  0
  5  6  1  0
  5  7  1  0
M  END
>  <Title>  (147) 
idAADSgen14

$$$$

     RDKit          2D

  5  5  0  0  0  0  0  0  0  0999 V2000
    1.2760    0.0000    0.0000 C   0  0  0  0  0  0  0  0  0  0  0  0
    0.3943    1.2135    0.0000 C   0  0  0  0  0  0  0  0  0  0  0  0
   -1.0323    0.7500    0.0000 C   0  0  0  0  0  0  0  0  0  0  0  0
   -1.0323   -0.7500    0.0000 C   0  0  0  0  0  0  0  0  0  0  0  0
    0.3943   -1.2135    0.0000 C   0  0  0  0  0  0  0  0  0  0  0  0
  1  2  2  0
  2  3  1  0
  3  4  1  0
  4  5  1  0
  5  1  1  0
M  END
>  <Title>  (148) 
idAADTgen14

$$$$

     RDKit          2D

  8  7  0  0  0  0  0  0  0  0999 V2000
    0.0000    0.0000    0.0000 C   0  0  0  0  0  0  0  0  0  0  0  0
    1.2990    0.7500    0.0000 C   0  0  0  0  0  0  0  0  0  0  0  0
    2.5981   -0.0000    0.0000 C   0  0  0  0  0  0  0  0  0  0  0  0
    3.8971    0.7500    0.0000 C   0  0  0  0  0  0  0  0  0  0  0  0
    5.1962   -0.0000    0.0000 C   0  0  0  0  0  0  0  0  0  0  0  0
    5.1962   -1.5000    0.0000 O   0  0  0  0  0  0  0  0  0  0  0  0
    6.4952    0.7500    0.0000 C   0  0  0  0  0  0  0  0  0  0  0  0
    7.7942   -0.0000    0.0000 C   0  0  0  0  0  0  0  0  0  0  0  0
  1  2  2  0
  2  3  1  0
  3  4  1  0
  4  5  1  0
  5  6  1  0
  5  7  1  0
  7  8  1  0
M  END
>  <Title>  (149) 
idAADUgen14

$$$$

     RDKit          2D

  8  8  0  0  0  0  0  0  0  0999 V2000
    4.5000    0.0000    0.0000 N   0  0  0  0  0  0  0  0  0  0  0  0
    3.0000    0.0000    0.0000 C   0  0  0  0  0  0  0  0  0  0  0  0
    1.5000    0.0000    0.0000 C   0  0  0  0  0  0  0  0  0  0  0  0
    0.7500   -1.2990    0.0000 C   0  0  0  0  0  0  0  0  0  0  0  0
   -0.7500   -1.2990    0.0000 C   0  0  0  0  0  0  0  0  0  0  0  0
   -1.5000    0.0000    0.0000 C   0  0  0  0  0  0  0  0  0  0  0  0
   -0.7500    1.2990    0.0000 C   0  0  0  0  0  0  0  0  0  0  0  0
    0.7500    1.2990    0.0000 N   0  0  0  0  0  0  0  0  0  0  0  0
  1  2  3  0
  2  3  1  0
  3  4  1  0
  4  5  2  0
  5  6  1  0
  6  7  1  0
  7  8  2  0
  8  3  1  0
M  END
>  <Title>  (150) 
idAADVgen14

$$$$

     RDKit          2D

 34 38  0  0  0  0  0  0  0  0999 V2000
   -3.0000   -2.5981    0.0000 C   0  0  0  0  0  0  0  0  0  0  0  0
   -1.5000   -2.5981    0.0000 C   0  0  0  0  0  0  0  0  0  0  0  0
   -0.7500   -3.8971    0.0000 C   0  0  0  0  0  0  0  0  0  0  0  0
    0.7500   -3.8971    0.0000 C   0  0  0  0  0  0  0  0  0  0  0  0
    1.5000   -2.5981    0.0000 C   0  0  0  0  0  0  0  0  0  0  0  0
    3.0000   -2.5981    0.0000 C   0  0  0  0  0  0  0  0  0  0  0  0
    3.7500   -1.2990    0.0000 O   0  0  0  0  0  0  0  0  0  0  0  0
    3.7500   -3.8971    0.0000 N   0  0  0  0  0  0  0  0  0  0  0  0
    5.2500   -3.8971    0.0000 C   0  0  0  0  0  0  0  0  0  0  0  0
    6.1317   -2.6836    0.0000 N   0  0  0  0  0  0  0  0  0  0  0  0
    7.5583   -3.1471    0.0000 N   0  0  0  0  0  0  0  0  0  0  0  0
    7.5583   -4.6471    0.0000 N   0  0  0  0  0  0  0  0  0  0  0  0
    6.1317   -5.1106    0.0000 N   0  0  0  0  0  0  0  0  0  0  0  0
    5.6682   -6.5372    0.0000 N   0  0  0  0  0  0  0  0  0  0  0  0
    4.3316   -7.2182    0.0000 C   0  0  0  0  0  0  0  0  0  0  0  0
    5.0126   -8.5547    0.0000 C   0  0  0  0  0  0  0  0  0  0  0  0
    4.5491   -9.9813    0.0000 C   0  0  0  0  0  0  0  0  0  0  0  0
    5.5528  -11.0960    0.0000 O   0  0  0  0  0  0  0  0  0  0  0  0
    3.0819  -10.2932    0.0000 N   0  0  0  0  0  0  0  0  0  0  0  0
    2.6184  -11.7198    0.0000 C   0  0  0  0  0  0  0  0  0  0  0  0
    1.1511  -12.0316    0.0000 N   0  0  0  0  0  0  0  0  0  0  0  0
    0.6876  -13.4582    0.0000 N   0  0  0  0  0  0  0  0  0  0  0  0
    1.6913  -14.5729    0.0000 N   0  0  0  0  0  0  0  0  0  0  0  0
    3.1585  -14.2611    0.0000 N   0  0  0  0  0  0  0  0  0  0  0  0
    3.6221  -12.8345    0.0000 N   0  0  0  0  0  0  0  0  0  0  0  0
    6.3491   -7.8737    0.0000 C   0  0  0  0  0  0  0  0  0  0  0  0
    7.7757   -8.3373    0.0000 O   0  0  0  0  0  0  0  0  0  0  0  0
    0.7500   -1.2990    0.0000 C   0  0  0  0  0  0  0  0  0  0  0  0
    1.5000    0.0000    0.0000 C   0  0  0  0  0  0  0  0  0  0  0  0
    0.7500    1.2990    0.0000 C   0  0  0  0  0  0  0  0  0  0  0  0
   -0.7500    1.2990    0.0000 C   0  0  0  0  0  0  0  0  0  0  0  0
   -1.5000    2.5981    0.0000 O   0  0  0  0  0  0  0  0  0  0  0  0
   -1.5000    0.0000    0.0000 C   0  0  0  0  0  0  0  0  0  0  0  0
   -0.7500   -1.2990    0.0000 C   0  0  0  0  0  0  0  0  0  0  0  0
  1  2  1  0
  2  3  1  0
  3  4  2  0
  4  5  1  0
  5  6  1  0
  6  7  2  0
  6  8  1  0
  8  9  1  0
  9 10  2  0
 10 11  1  0
 11 12  2  0
 12 13  1  0
 13 14  1  0
 14 15  1  0
 15 16  2  0
 16 17  1  0
 17 18  2  0
 17 19  1  0
 19 20  1  0
 20 21  2  0
 21 22  1  0
 22 23  2  0
 23 24  1  0
 24 25  2  0
 16 26  1  0
 26 27  2  0
  5 28  1  0
 28 29  2  0
 29 30  1  0
 30 31  2  0
 31 32  1  0
 31 33  1  0
 33 34  2  0
 34  2  1  0
 13  9  1  0
 26 14  1  0
 34 28  1  0
 25 20  1  0
M  END
>  <Title>  (151) 
idAADWgen14

$$$$

     RDKit          2D

 36 40  0  0  0  0  0  0  0  0999 V2000
   -3.1965   -1.7857    0.0000 C   0  0  0  0  0  0  0  0  0  0  0  0
   -1.8107   -2.3597    0.0000 C   0  0  0  0  0  0  0  0  0  0  0  0
   -1.8107   -3.8597    0.0000 C   0  0  0  0  0  0  0  0  0  0  0  0
   -0.7500   -4.9204    0.0000 C   0  0  0  0  0  0  0  0  0  0  0  0
    0.7500   -4.9204    0.0000 C   0  0  0  0  0  0  0  0  0  0  0  0
    1.8107   -3.8597    0.0000 O   0  0  0  0  0  0  0  0  0  0  0  0
    1.8107   -2.3597    0.0000 C   0  0  0  0  0  0  0  0  0  0  0  0
    3.1965   -1.7857    0.0000 C   0  0  0  0  0  0  0  0  0  0  0  0
    3.3923   -0.2985    0.0000 O   0  0  0  0  0  0  0  0  0  0  0  0
    4.3865   -2.6988    0.0000 N   0  0  0  0  0  0  0  0  0  0  0  0
    5.7723   -2.1248    0.0000 C   0  0  0  0  0  0  0  0  0  0  0  0
    6.1225   -0.6662    0.0000 N   0  0  0  0  0  0  0  0  0  0  0  0
    7.6179   -0.5485    0.0000 N   0  0  0  0  0  0  0  0  0  0  0  0
    8.1919   -1.9344    0.0000 N   0  0  0  0  0  0  0  0  0  0  0  0
    7.0513   -2.9085    0.0000 N   0  0  0  0  0  0  0  0  0  0  0  0
    7.1690   -4.4039    0.0000 N   0  0  0  0  0  0  0  0  0  0  0  0
    8.4479   -5.1877    0.0000 C   0  0  0  0  0  0  0  0  0  0  0  0
    8.0978   -6.6462    0.0000 C   0  0  0  0  0  0  0  0  0  0  0  0
    6.6024   -6.7639    0.0000 C   0  0  0  0  0  0  0  0  0  0  0  0
    5.8186   -8.0429    0.0000 C   0  0  0  0  0  0  0  0  0  0  0  0
    6.5344   -9.3611    0.0000 O   0  0  0  0  0  0  0  0  0  0  0  0
    4.3192   -8.0036    0.0000 N   0  0  0  0  0  0  0  0  0  0  0  0
    3.5354   -9.2826    0.0000 C   0  0  0  0  0  0  0  0  0  0  0  0
    2.0359   -9.2433    0.0000 N   0  0  0  0  0  0  0  0  0  0  0  0
    1.2522  -10.5223    0.0000 N   0  0  0  0  0  0  0  0  0  0  0  0
    1.9679  -11.8405    0.0000 N   0  0  0  0  0  0  0  0  0  0  0  0
    3.4674  -11.8797    0.0000 N   0  0  0  0  0  0  0  0  0  0  0  0
    4.2512  -10.6008    0.0000 N   0  0  0  0  0  0  0  0  0  0  0  0
    6.0284   -5.3781    0.0000 C   0  0  0  0  0  0  0  0  0  0  0  0
    4.5698   -5.0279    0.0000 O   0  0  0  0  0  0  0  0  0  0  0  0
    0.7500   -1.2990    0.0000 C   0  0  0  0  0  0  0  0  0  0  0  0
    1.5000    0.0000    0.0000 C   0  0  0  0  0  0  0  0  0  0  0  0
    0.7500    1.2990    0.0000 C   0  0  0  0  0  0  0  0  0  0  0  0
   -0.7500    1.2990    0.0000 C   0  0  0  0  0  0  0  0  0  0  0  0
   -1.5000    0.0000    0.0000 C   0  0  0  0  0  0  0  0  0  0  0  0
   -0.7500   -1.2990    0.0000 C   0  0  0  0  0  0  0  0  0  0  0  0
  1  2  1  0
  2  3  1  0
  3  4  1  0
  4  5  1  0
  5  6  1  0
  6  7  1  0
  7  8  1  0
  8  9  2  0
  8 10  1  0
 10 11  1  0
 11 12  2  0
 12 13  1  0
 13 14  2  0
 14 15  1  0
 15 16  1  0
 16 17  1  0
 17 18  1  0
 18 19  1  0
 19 20  1  0
 20 21  2  0
 20 22  1  0
 22 23  1  0
 23 24  2  0
 24 25  1  0
 25 26  2  0
 26 27  1  0
 27 28  2  0
 19 29  1  0
 29 30  2  0
  7 31  1  0
 31 32  2  0
 32 33  1  0
 33 34  2  0
 34 35  1  0
 35 36  2  0
 36  2  1  0
 15 11  1  0
 29 16  1  0
 36 31  1  0
 28 23  1  0
M  END
>  <Title>  (152) 
idAADXgen14

$$$$

     RDKit          2D

  9  8  0  0  0  0  0  0  0  0999 V2000
    0.0000    0.0000    0.0000 C   0  0  0  0  0  0  0  0  0  0  0  0
    1.2990    0.7500    0.0000 C   0  0  0  0  0  0  0  0  0  0  0  0
    2.5981   -0.0000    0.0000 C   0  0  0  0  0  0  0  0  0  0  0  0
    3.8971    0.7500    0.0000 N   0  0  0  0  0  0  0  0  0  0  0  0
    5.1962   -0.0000    0.0000 C   0  0  0  0  0  0  0  0  0  0  0  0
    2.5981   -1.5000    0.0000 N   0  0  0  0  0  0  0  0  0  0  0  0
    3.8971   -2.2500    0.0000 C   0  0  0  0  0  0  0  0  0  0  0  0
    3.8971   -3.7500    0.0000 C   0  0  0  0  0  0  0  0  0  0  0  0
    5.1962   -1.5000    0.0000 C   0  0  0  0  0  0  0  0  0  0  0  0
  1  2  1  0
  2  3  1  0
  3  4  1  0
  4  5  1  0
  3  6  1  0
  6  7  1  0
  7  8  1  0
  7  9  1  0
M  END
>  <Title>  (153) 
idAADYgen14

$$$$

     RDKit          2D

 14 14  0  0  0  0  0  0  0  0999 V2000
    5.2500   -6.4952    0.0000 C   0  0  0  0  0  0  0  0  0  0  0  0
    6.0000   -5.1962    0.0000 C   0  0  0  0  0  0  0  0  0  0  0  0
    5.2500   -3.8971    0.0000 C   0  0  0  0  0  0  0  0  0  0  0  0
    6.0000   -2.5981    0.0000 C   0  0  0  0  0  0  0  0  0  0  0  0
    7.5000   -2.5981    0.0000 C   0  0  0  0  0  0  0  0  0  0  0  0
    5.2500   -1.2990    0.0000 C   0  0  0  0  0  0  0  0  0  0  0  0
    3.7500   -1.2990    0.0000 C   0  0  0  0  0  0  0  0  0  0  0  0
    3.0000    0.0000    0.0000 C   0  0  0  0  0  0  0  0  0  0  0  0
    1.5000    0.0000    0.0000 C   0  0  0  0  0  0  0  0  0  0  0  0
    0.7500   -1.2990    0.0000 C   0  0  0  0  0  0  0  0  0  0  0  0
   -0.7500   -1.2990    0.0000 C   0  0  0  0  0  0  0  0  0  0  0  0
   -1.5000    0.0000    0.0000 C   0  0  0  0  0  0  0  0  0  0  0  0
   -0.7500    1.2990    0.0000 N   0  0  0  0  0  0  0  0  0  0  0  0
    0.7500    1.2990    0.0000 C   0  0  0  0  0  0  0  0  0  0  0  0
  1  2  1  0
  2  3  1  0
  3  4  1  0
  4  5  1  0
  4  6  1  0
  6  7  1  0
  7  8  2  3
  8  9  1  0
  9 10  2  0
 10 11  1  0
 11 12  2  0
 12 13  1  0
 13 14  2  0
 14  9  1  0
M  END
>  <Title>  (154) 
idAADZgen14

$$$$

     RDKit          2D

 12 11  0  0  0  0  0  0  0  0999 V2000
    0.0000    0.0000    0.0000 C   0  0  0  0  0  0  0  0  0  0  0  0
    1.2990    0.7500    0.0000 C   0  0  0  0  0  0  0  0  0  0  0  0
    2.5981   -0.0000    0.0000 C   0  0  0  0  0  0  0  0  0  0  0  0
    3.8971    0.7500    0.0000 C   0  0  0  0  0  0  0  0  0  0  0  0
    5.1962   -0.0000    0.0000 C   0  0  0  0  0  0  0  0  0  0  0  0
    6.4952    0.7500    0.0000 N   0  0  0  0  0  0  0  0  0  0  0  0
    7.7942   -0.0000    0.0000 C   0  0  0  0  0  0  0  0  0  0  0  0
    5.1962   -1.5000    0.0000 N   0  0  0  0  0  0  0  0  0  0  0  0
    6.4952   -2.2500    0.0000 C   0  0  0  0  0  0  0  0  0  0  0  0
    7.2452   -0.9510    0.0000 C   0  0  0  0  0  0  0  0  0  0  0  0
    5.7452   -3.5490    0.0000 C   0  0  0  0  0  0  0  0  0  0  0  0
    7.7942   -3.0000    0.0000 O   0  0  0  0  0  0  0  0  0  0  0  0
  1  2  2  0
  2  3  1  0
  3  4  1  0
  4  5  1  0
  5  6  1  0
  6  7  1  0
  5  8  1  0
  8  9  1  0
  9 10  1  0
  9 11  1  0
  9 12  1  0
M  END
>  <Title>  (155) 
idAAEAgen14

$$$$

     RDKit          2D

 39 43  0  0  0  0  0  0  0  0999 V2000
   -3.1965   -1.7857    0.0000 C   0  0  0  0  0  0  0  0  0  0  0  0
   -1.8107   -2.3597    0.0000 C   0  0  0  0  0  0  0  0  0  0  0  0
   -1.8107   -3.8597    0.0000 C   0  0  0  0  0  0  0  0  0  0  0  0
   -0.7500   -4.9204    0.0000 C   0  0  0  0  0  0  0  0  0  0  0  0
    0.7500   -4.9204    0.0000 C   0  0  0  0  0  0  0  0  0  0  0  0
    1.8107   -3.8597    0.0000 C   0  0  0  0  0  0  0  0  0  0  0  0
    1.8107   -2.3597    0.0000 C   0  0  0  0  0  0  0  0  0  0  0  0
    3.1965   -1.7857    0.0000 C   0  0  0  0  0  0  0  0  0  0  0  0
    3.3923   -0.2985    0.0000 O   0  0  0  0  0  0  0  0  0  0  0  0
    4.3865   -2.6988    0.0000 N   0  0  0  0  0  0  0  0  0  0  0  0
    5.7723   -2.1248    0.0000 C   0  0  0  0  0  0  0  0  0  0  0  0
    6.1225   -0.6662    0.0000 N   0  0  0  0  0  0  0  0  0  0  0  0
    7.6179   -0.5485    0.0000 N   0  0  0  0  0  0  0  0  0  0  0  0
    8.1919   -1.9344    0.0000 N   0  0  0  0  0  0  0  0  0  0  0  0
    7.0513   -2.9085    0.0000 N   0  0  0  0  0  0  0  0  0  0  0  0
    7.1690   -4.4039    0.0000 C   0  0  0  0  0  0  0  0  0  0  0  0
    8.4479   -5.1877    0.0000 C   0  0  0  0  0  0  0  0  0  0  0  0
    8.0978   -6.6462    0.0000 C   0  0  0  0  0  0  0  0  0  0  0  0
    6.6024   -6.7639    0.0000 C   0  0  0  0  0  0  0  0  0  0  0  0
    5.8186   -8.0429    0.0000 O   0  0  0  0  0  0  0  0  0  0  0  0
    4.3192   -8.0036    0.0000 C   0  0  0  0  0  0  0  0  0  0  0  0
    3.6034   -6.6854    0.0000 O   0  0  0  0  0  0  0  0  0  0  0  0
    3.5354   -9.2826    0.0000 N   0  0  0  0  0  0  0  0  0  0  0  0
    2.0359   -9.2433    0.0000 C   0  0  0  0  0  0  0  0  0  0  0  0
    1.3202   -7.9251    0.0000 N   0  0  0  0  0  0  0  0  0  0  0  0
   -0.1793   -7.8858    0.0000 N   0  0  0  0  0  0  0  0  0  0  0  0
   -0.9630   -9.1648    0.0000 N   0  0  0  0  0  0  0  0  0  0  0  0
   -0.2473  -10.4830    0.0000 N   0  0  0  0  0  0  0  0  0  0  0  0
    1.2522  -10.5223    0.0000 N   0  0  0  0  0  0  0  0  0  0  0  0
    6.0284   -5.3781    0.0000 C   0  0  0  0  0  0  0  0  0  0  0  0
    4.5698   -5.0279    0.0000 O   0  0  0  0  0  0  0  0  0  0  0  0
    0.7500   -1.2990    0.0000 C   0  0  0  0  0  0  0  0  0  0  0  0
    1.5000    0.0000    0.0000 C   0  0  0  0  0  0  0  0  0  0  0  0
    0.7500    1.2990    0.0000 C   0  0  0  0  0  0  0  0  0  0  0  0
   -0.7500    1.2990    0.0000 C   0  0  0  0  0  0  0  0  0  0  0  0
   -1.5000    2.5981    0.0000 C   0  0  0  0  0  0  0  0  0  0  0  0
   -2.2500    3.8971    0.0000 N   0  0  0  0  0  0  0  0  0  0  0  0
   -1.5000    0.0000    0.0000 C   0  0  0  0  0  0  0  0  0  0  0  0
   -0.7500   -1.2990    0.0000 C   0  0  0  0  0  0  0  0  0  0  0  0
  1  2  1  0
  2  3  1  0
  3  4  2  0
  4  5  1  0
  5  6  1  0
  6  7  1  0
  7  8  1  0
  8  9  2  0
  8 10  1  0
 10 11  1  0
 11 12  2  0
 12 13  1  0
 13 14  2  0
 14 15  1  0
 15 16  1  0
 16 17  2  0
 17 18  1  0
 18 19  2  0
 19 20  1  0
 20 21  1  0
 21 22  2  0
 21 23  1  0
 23 24  1  0
 24 25  2  0
 25 26  1  0
 26 27  2  0
 27 28  1  0
 28 29  2  0
 19 30  1  0
 30 31  2  0
  7 32  1  0
 32 33  2  0
 33 34  1  0
 34 35  2  0
 35 36  1  0
 36 37  3  0
 35 38  1  0
 38 39  2  0
 39  2  1  0
 15 11  1  0
 30 16  1  0
 39 32  1  0
 29 24  1  0
M  END
>  <Title>  (156) 
idAAEBgen14

$$$$

     RDKit          2D

 40 44  0  0  0  0  0  0  0  0999 V2000
   -7.3539   -0.0636    0.0000 C   0  0  0  0  0  0  0  0  0  0  0  0
   -5.9681   -0.6376    0.0000 C   0  0  0  0  0  0  0  0  0  0  0  0
   -4.5823   -1.2116    0.0000 C   0  0  0  0  0  0  0  0  0  0  0  0
   -3.1965   -1.7857    0.0000 C   0  0  0  0  0  0  0  0  0  0  0  0
   -1.8107   -2.3597    0.0000 C   0  0  0  0  0  0  0  0  0  0  0  0
   -1.8107   -3.8597    0.0000 C   0  0  0  0  0  0  0  0  0  0  0  0
   -0.7500   -4.9204    0.0000 C   0  0  0  0  0  0  0  0  0  0  0  0
    0.7500   -4.9204    0.0000 C   0  0  0  0  0  0  0  0  0  0  0  0
    1.3240   -6.3062    0.0000 C   0  0  0  0  0  0  0  0  0  0  0  0
    2.8112   -6.5020    0.0000 O   0  0  0  0  0  0  0  0  0  0  0  0
    0.4109   -7.4962    0.0000 N   0  0  0  0  0  0  0  0  0  0  0  0
    0.9849   -8.8820    0.0000 C   0  0  0  0  0  0  0  0  0  0  0  0
    2.4435   -9.2322    0.0000 N   0  0  0  0  0  0  0  0  0  0  0  0
    2.5612  -10.7276    0.0000 N   0  0  0  0  0  0  0  0  0  0  0  0
    1.1753  -11.3016    0.0000 N   0  0  0  0  0  0  0  0  0  0  0  0
    0.2012  -10.1610    0.0000 N   0  0  0  0  0  0  0  0  0  0  0  0
   -1.2942  -10.2787    0.0000 N   0  0  0  0  0  0  0  0  0  0  0  0
   -2.0780  -11.5576    0.0000 C   0  0  0  0  0  0  0  0  0  0  0  0
   -3.5365  -11.2075    0.0000 C   0  0  0  0  0  0  0  0  0  0  0  0
   -3.6542   -9.7121    0.0000 N   0  0  0  0  0  0  0  0  0  0  0  0
   -4.9332   -8.9283    0.0000 C   0  0  0  0  0  0  0  0  0  0  0  0
   -6.2514   -9.6441    0.0000 O   0  0  0  0  0  0  0  0  0  0  0  0
   -4.8939   -7.4289    0.0000 N   0  0  0  0  0  0  0  0  0  0  0  0
   -6.1729   -6.6451    0.0000 C   0  0  0  0  0  0  0  0  0  0  0  0
   -6.1336   -5.1456    0.0000 N   0  0  0  0  0  0  0  0  0  0  0  0
   -7.4126   -4.3619    0.0000 N   0  0  0  0  0  0  0  0  0  0  0  0
   -8.7308   -5.0776    0.0000 N   0  0  0  0  0  0  0  0  0  0  0  0
   -8.7700   -6.5771    0.0000 N   0  0  0  0  0  0  0  0  0  0  0  0
   -7.4911   -7.3608    0.0000 N   0  0  0  0  0  0  0  0  0  0  0  0
   -2.2684   -9.1381    0.0000 C   0  0  0  0  0  0  0  0  0  0  0  0
   -1.9182   -7.6795    0.0000 O   0  0  0  0  0  0  0  0  0  0  0  0
    1.8107   -3.8597    0.0000 C   0  0  0  0  0  0  0  0  0  0  0  0
    3.1965   -4.4337    0.0000 O   0  0  0  0  0  0  0  0  0  0  0  0
    1.8107   -2.3597    0.0000 O   0  0  0  0  0  0  0  0  0  0  0  0
    0.7500   -1.2990    0.0000 C   0  0  0  0  0  0  0  0  0  0  0  0
    1.5000    0.0000    0.0000 C   0  0  0  0  0  0  0  0  0  0  0  0
    0.7500    1.2990    0.0000 C   0  0  0  0  0  0  0  0  0  0  0  0
   -0.7500    1.2990    0.0000 C   0  0  0  0  0  0  0  0  0  0  0  0
   -1.5000    0.0000    0.0000 C   0  0  0  0  0  0  0  0  0  0  0  0
   -0.7500   -1.2990    0.0000 C   0  0  0  0  0  0  0  0  0  0  0  0
  1  2  3  0
  2  3  1  0
  3  4  3  0
  4  5  1  0
  5  6  2  0
  6  7  1  0
  7  8  2  0
  8  9  1  0
  9 10  2  0
  9 11  1  0
 11 12  1  0
 12 13  2  0
 13 14  1  0
 14 15  2  0
 15 16  1  0
 16 17  1  0
 17 18  1  0
 18 19  1  0
 19 20  1  0
 20 21  1  0
 21 22  2  0
 21 23  1  0
 23 24  1  0
 24 25  2  0
 25 26  1  0
 26 27  2  0
 27 28  1  0
 28 29  2  0
 20 30  1  0
 30 31  2  0
  8 32  1  0
 32 33  2  0
 32 34  1  0
 34 35  1  0
 35 36  2  0
 36 37  1  0
 37 38  2  0
 38 39  1  0
 39 40  2  0
 40  5  1  0
 16 12  1  0
 30 17  1  0
 40 35  1  0
 29 24  1  0
M  END
>  <Title>  (157) 
idAAECgen14

$$$$

     RDKit          2D

 98 98  0  0  0  0  0  0  0  0999 V2000
   24.6611    0.0000    0.0000 C   0  0  0  0  0  0  0  0  0  0  0  0
   23.1611    0.0000    0.0000 C   0  0  0  0  0  0  0  0  0  0  0  0
   23.1125    1.4992    0.0000 C   0  0  0  0  0  0  0  0  0  0  0  0
   22.9670    2.9921    0.0000 C   0  0  0  0  0  0  0  0  0  0  0  0
   22.7252    4.4725    0.0000 C   0  0  0  0  0  0  0  0  0  0  0  0
   22.3880    5.9341    0.0000 C   0  0  0  0  0  0  0  0  0  0  0  0
   21.9569    7.3709    0.0000 C   0  0  0  0  0  0  0  0  0  0  0  0
   21.4338    8.7767    0.0000 C   0  0  0  0  0  0  0  0  0  0  0  0
   20.8207   10.1457    0.0000 C   0  0  0  0  0  0  0  0  0  0  0  0
   20.1203   11.4721    0.0000 C   0  0  0  0  0  0  0  0  0  0  0  0
   19.3355   12.7504    0.0000 C   0  0  0  0  0  0  0  0  0  0  0  0
   18.4696   13.9753    0.0000 C   0  0  0  0  0  0  0  0  0  0  0  0
   17.5263   15.1415    0.0000 C   0  0  0  0  0  0  0  0  0  0  0  0
   16.5094   16.2442    0.0000 C   0  0  0  0  0  0  0  0  0  0  0  0
   15.4233   17.2788    0.0000 C   0  0  0  0  0  0  0  0  0  0  0  0
   14.2725   18.2409    0.0000 C   0  0  0  0  0  0  0  0  0  0  0  0
   13.0619   19.1265    0.0000 C   0  0  0  0  0  0  0  0  0  0  0  0
   11.7964   19.9319    0.0000 C   0  0  0  0  0  0  0  0  0  0  0  0
   10.4815   20.6537    0.0000 C   0  0  0  0  0  0  0  0  0  0  0  0
    9.1226   21.2888    0.0000 C   0  0  0  0  0  0  0  0  0  0  0  0
    7.7254   21.8347    0.0000 C   0  0  0  0  0  0  0  0  0  0  0  0
    6.2959   22.2890    0.0000 C   0  0  0  0  0  0  0  0  0  0  0  0
    4.8399   22.6498    0.0000 C   0  0  0  0  0  0  0  0  0  0  0  0
    3.3637   22.9155    0.0000 C   0  0  0  0  0  0  0  0  0  0  0  0
    1.8733   23.0852    0.0000 C   0  0  0  0  0  0  0  0  0  0  0  0
    0.3750   23.1581    0.0000 C   0  0  0  0  0  0  0  0  0  0  0  0
   -1.1248   23.1338    0.0000 C   0  0  0  0  0  0  0  0  0  0  0  0
   -2.6198   23.0124    0.0000 C   0  0  0  0  0  0  0  0  0  0  0  0
   -4.1039   22.7946    0.0000 C   0  0  0  0  0  0  0  0  0  0  0  0
   -5.5708   22.4812    0.0000 C   0  0  0  0  0  0  0  0  0  0  0  0
   -7.0143   22.0734    0.0000 C   0  0  0  0  0  0  0  0  0  0  0  0
   -8.4284   21.5731    0.0000 C   0  0  0  0  0  0  0  0  0  0  0  0
   -9.8072   20.9823    0.0000 C   0  0  0  0  0  0  0  0  0  0  0  0
  -11.1448   20.3034    0.0000 C   0  0  0  0  0  0  0  0  0  0  0  0
  -12.4357   19.5395    0.0000 C   0  0  0  0  0  0  0  0  0  0  0  0
  -13.6744   18.6935    0.0000 C   0  0  0  0  0  0  0  0  0  0  0  0
  -14.8557   17.7692    0.0000 C   0  0  0  0  0  0  0  0  0  0  0  0
  -15.9748   16.7703    0.0000 C   0  0  0  0  0  0  0  0  0  0  0  0
  -17.0268   15.7011    0.0000 C   0  0  0  0  0  0  0  0  0  0  0  0
  -18.0074   14.5660    0.0000 C   0  0  0  0  0  0  0  0  0  0  0  0
  -18.9125   13.3699    0.0000 C   0  0  0  0  0  0  0  0  0  0  0  0
  -19.7383   12.1176    0.0000 C   0  0  0  0  0  0  0  0  0  0  0  0
  -20.4813   10.8146    0.0000 C   0  0  0  0  0  0  0  0  0  0  0  0
  -21.1383    9.4661    0.0000 C   0  0  0  0  0  0  0  0  0  0  0  0
  -21.7067    8.0780    0.0000 C   0  0  0  0  0  0  0  0  0  0  0  0
  -22.1841    6.6560    0.0000 C   0  0  0  0  0  0  0  0  0  0  0  0
  -22.5684    5.2061    0.0000 C   0  0  0  0  0  0  0  0  0  0  0  0
  -22.8581    3.7343    0.0000 C   0  0  0  0  0  0  0  0  0  0  0  0
  -23.0519    2.2469    0.0000 C   0  0  0  0  0  0  0  0  0  0  0  0
  -23.1489    0.7500    0.0000 C   0  0  0  0  0  0  0  0  0  0  0  0
  -23.1489   -0.7500    0.0000 C   0  0  0  0  0  0  0  0  0  0  0  0
  -23.0519   -2.2469    0.0000 C   0  0  0  0  0  0  0  0  0  0  0  0
  -22.8581   -3.7343    0.0000 C   0  0  0  0  0  0  0  0  0  0  0  0
  -22.5684   -5.2061    0.0000 C   0  0  0  0  0  0  0  0  0  0  0  0
  -22.1841   -6.6560    0.0000 C   0  0  0  0  0  0  0  0  0  0  0  0
  -21.7067   -8.0780    0.0000 C   0  0  0  0  0  0  0  0  0  0  0  0
  -21.1383   -9.4661    0.0000 C   0  0  0  0  0  0  0  0  0  0  0  0
  -20.4813  -10.8146    0.0000 C   0  0  0  0  0  0  0  0  0  0  0  0
  -19.7383  -12.1176    0.0000 C   0  0  0  0  0  0  0  0  0  0  0  0
  -18.9125  -13.3699    0.0000 C   0  0  0  0  0  0  0  0  0  0  0  0
  -18.0074  -14.5660    0.0000 C   0  0  0  0  0  0  0  0  0  0  0  0
  -17.0268  -15.7011    0.0000 C   0  0  0  0  0  0  0  0  0  0  0  0
  -15.9748  -16.7703    0.0000 C   0  0  0  0  0  0  0  0  0  0  0  0
  -14.8557  -17.7692    0.0000 C   0  0  0  0  0  0  0  0  0  0  0  0
  -13.6744  -18.6935    0.0000 C   0  0  0  0  0  0  0  0  0  0  0  0
  -12.4357  -19.5395    0.0000 C   0  0  0  0  0  0  0  0  0  0  0  0
  -11.1448  -20.3034    0.0000 C   0  0  0  0  0  0  0  0  0  0  0  0
   -9.8072  -20.9823    0.0000 C   0  0  0  0  0  0  0  0  0  0  0  0
   -8.4284  -21.5731    0.0000 C   0  0  0  0  0  0  0  0  0  0  0  0
   -7.0143  -22.0734    0.0000 C   0  0  0  0  0  0  0  0  0  0  0  0
   -5.5708  -22.4812    0.0000 C   0  0  0  0  0  0  0  0  0  0  0  0
   -4.1039  -22.7946    0.0000 C   0  0  0  0  0  0  0  0  0  0  0  0
   -2.6198  -23.0124    0.0000 C   0  0  0  0  0  0  0  0  0  0  0  0
   -1.1248  -23.1338    0.0000 C   0  0  0  0  0  0  0  0  0  0  0  0
    0.3750  -23.1581    0.0000 C   0  0  0  0  0  0  0  0  0  0  0  0
    1.8733  -23.0852    0.0000 C   0  0  0  0  0  0  0  0  0  0  0  0
    3.3637  -22.9155    0.0000 C   0  0  0  0  0  0  0  0  0  0  0  0
    4.8399  -22.6498    0.0000 C   0  0  0  0  0  0  0  0  0  0  0  0
    6.2959  -22.2890    0.0000 C   0  0  0  0  0  0  0  0  0  0  0  0
    7.7254  -21.8347    0.0000 C   0  0  0  0  0  0  0  0  0  0  0  0
    9.1226  -21.2888    0.0000 C   0  0  0  0  0  0  0  0  0  0  0  0
   10.4815  -20.6537    0.0000 C   0  0  0  0  0  0  0  0  0  0  0  0
   11.7964  -19.9319    0.0000 C   0  0  0  0  0  0  0  0  0  0  0  0
   13.0619  -19.1265    0.0000 C   0  0  0  0  0  0  0  0  0  0  0  0
   14.2725  -18.2409    0.0000 C   0  0  0  0  0  0  0  0  0  0  0  0
   15.4233  -17.2788    0.0000 C   0  0  0  0  0  0  0  0  0  0  0  0
   16.5094  -16.2442    0.0000 C   0  0  0  0  0  0  0  0  0  0  0  0
   17.5263  -15.1415    0.0000 C   0  0  0  0  0  0  0  0  0  0  0  0
   18.4696  -13.9753    0.0000 C   0  0  0  0  0  0  0  0  0  0  0  0
   19.3355  -12.7504    0.0000 C   0  0  0  0  0  0  0  0  0  0  0  0
   20.1203  -11.4721    0.0000 C   0  0  0  0  0  0  0  0  0  0  0  0
   20.8207  -10.1457    0.0000 C   0  0  0  0  0  0  0  0  0  0  0  0
   21.4338   -8.7767    0.0000 C   0  0  0  0  0  0  0  0  0  0  0  0
   21.9569   -7.3709    0.0000 C   0  0  0  0  0  0  0  0  0  0  0  0
   22.3880   -5.9341    0.0000 C   0  0  0  0  0  0  0  0  0  0  0  0
   22.7252   -4.4725    0.0000 C   0  0  0  0  0  0  0  0  0  0  0  0
   22.9670   -2.9921    0.0000 C   0  0  0  0  0  0  0  0  0  0  0  0
   23.1125   -1.4992    0.0000 C   0  0  0  0  0  0  0  0  0  0  0  0
  1  2  1  0
  2  3  1  0
  3  4  2  0
  4  5  1  0
  5  6  2  0
  6  7  1  0
  7  8  2  0
  8  9  1  0
  9 10  2  0
 10 11  1  0
 11 12  2  0
 12 13  1  0
 13 14  2  0
 14 15  1  0
 15 16  2  0
 16 17  1  0
 17 18  2  0
 18 19  1  0
 19 20  2  0
 20 21  1  0
 21 22  2  0
 22 23  1  0
 23 24  2  0
 24 25  1  0
 25 26  2  0
 26 27  1  0
 27 28  2  0
 28 29  1  0
 29 30  2  0
 30 31  1  0
 31 32  2  0
 32 33  1  0
 33 34  2  0
 34 35  1  0
 35 36  2  0
 36 37  1  0
 37 38  2  0
 38 39  1  0
 39 40  2  0
 40 41  1  0
 41 42  2  0
 42 43  1  0
 43 44  2  0
 44 45  1  0
 45 46  2  0
 46 47  1  0
 47 48  2  0
 48 49  1  0
 49 50  2  0
 50 51  1  0
 51 52  2  0
 52 53  1  0
 53 54  2  0
 54 55  1  0
 55 56  2  0
 56 57  1  0
 57 58  2  0
 58 59  1  0
 59 60  1  0
 60 61  1  0
 61 62  1  0
 62 63  1  0
 63 64  1  0
 64 65  1  0
 65 66  1  0
 66 67  1  0
 67 68  1  0
 68 69  1  0
 69 70  1  0
 70 71  1  0
 71 72  1  0
 72 73  1  0
 73 74  1  0
 74 75  1  0
 75 76  1  0
 76 77  1  0
 77 78  1  0
 78 79  1  0
 79 80  1  0
 80 81  1  0
 81 82  1  0
 82 83  1  0
 83 84  1  0
 84 85  1  0
 85 86  1  0
 86 87  1  0
 87 88  1  0
 88 89  1  0
 89 90  1  0
 90 91  1  0
 91 92  1  0
 92 93  1  0
 93 94  1  0
 94 95  1  0
 95 96  1  0
 96 97  1  0
 97 98  1  0
 98  2  1  0
M  END
>  <Title>  (158) 
idAAEDgen14

$$$$

     RDKit          2D

  6  5  0  0  0  0  0  0  0  0999 V2000
    0.0000    0.0000    0.0000 C   0  0  0  0  0  0  0  0  0  0  0  0
   -0.0000   -1.5000    0.0000 C   0  0  0  0  0  0  0  0  0  0  0  0
   -0.0000   -3.0000    0.0000 C   0  0  0  0  0  0  0  0  0  0  0  0
    1.2990   -3.7500    0.0000 C   0  0  0  0  0  0  0  0  0  0  0  0
    1.2990   -5.2500    0.0000 C   0  0  0  0  0  0  0  0  0  0  0  0
    2.5981   -6.0000    0.0000 C   0  0  0  0  0  0  0  0  0  0  0  0
  1  2  3  0
  2  3  1  0
  3  4  1  0
  4  5  1  0
  5  6  2  0
M  END
>  <Title>  (159) 
idAAEEgen14

$$$$

     RDKit          2D

108109  0  0  0  0  0  0  0  0999 V2000
    1.5985    3.7279    0.0000 C   0  0  0  0  0  0  0  0  0  0  0  0
    2.3156    4.0760    0.0000 C   0  0  0  0  0  0  0  0  0  0  0  0
    1.7070    5.4470    0.0000 C   0  0  0  0  0  0  0  0  0  0  0  0
    1.1933    6.8563    0.0000 C   0  0  0  0  0  0  0  0  0  0  0  0
    0.7770    8.2974    0.0000 C   0  0  0  0  0  0  0  0  0  0  0  0
    0.4600    9.7635    0.0000 C   0  0  0  0  0  0  0  0  0  0  0  0
    0.2439   11.2479    0.0000 C   0  0  0  0  0  0  0  0  0  0  0  0
    0.1295   12.7435    0.0000 C   0  0  0  0  0  0  0  0  0  0  0  0
    0.1174   14.2434    0.0000 C   0  0  0  0  0  0  0  0  0  0  0  0
    0.2078   15.7407    0.0000 C   0  0  0  0  0  0  0  0  0  0  0  0
    0.4001   17.2283    0.0000 C   0  0  0  0  0  0  0  0  0  0  0  0
    0.6934   18.6994    0.0000 C   0  0  0  0  0  0  0  0  0  0  0  0
    1.0865   20.1469    0.0000 C   0  0  0  0  0  0  0  0  0  0  0  0
    1.5775   21.5643    0.0000 C   0  0  0  0  0  0  0  0  0  0  0  0
    2.1640   22.9449    0.0000 C   0  0  0  0  0  0  0  0  0  0  0  0
    2.8434   24.2822    0.0000 C   0  0  0  0  0  0  0  0  0  0  0  0
    3.6124   25.5701    0.0000 C   0  0  0  0  0  0  0  0  0  0  0  0
    4.4676   26.8024    0.0000 C   0  0  0  0  0  0  0  0  0  0  0  0
    5.4048   27.9736    0.0000 C   0  0  0  0  0  0  0  0  0  0  0  0
    6.4198   29.0780    0.0000 C   0  0  0  0  0  0  0  0  0  0  0  0
    7.5078   30.1106    0.0000 C   0  0  0  0  0  0  0  0  0  0  0  0
    8.6637   31.0666    0.0000 C   0  0  0  0  0  0  0  0  0  0  0  0
    9.8822   31.9414    0.0000 C   0  0  0  0  0  0  0  0  0  0  0  0
   11.1575   32.7311    0.0000 C   0  0  0  0  0  0  0  0  0  0  0  0
   12.4837   33.4318    0.0000 C   0  0  0  0  0  0  0  0  0  0  0  0
   13.8547   34.0405    0.0000 C   0  0  0  0  0  0  0  0  0  0  0  0
   15.2640   34.5541    0.0000 C   0  0  0  0  0  0  0  0  0  0  0  0
   16.7051   34.9704    0.0000 C   0  0  0  0  0  0  0  0  0  0  0  0
   18.1712   35.2874    0.0000 C   0  0  0  0  0  0  0  0  0  0  0  0
   19.6556   35.5036    0.0000 C   0  0  0  0  0  0  0  0  0  0  0  0
   21.1512   35.6180    0.0000 C   0  0  0  0  0  0  0  0  0  0  0  0
   22.6512   35.6300    0.0000 C   0  0  0  0  0  0  0  0  0  0  0  0
   24.1484   35.5397    0.0000 C   0  0  0  0  0  0  0  0  0  0  0  0
   25.6361   35.3474    0.0000 C   0  0  0  0  0  0  0  0  0  0  0  0
   27.1071   35.0540    0.0000 C   0  0  0  0  0  0  0  0  0  0  0  0
   28.5547   34.6609    0.0000 C   0  0  0  0  0  0  0  0  0  0  0  0
   29.9720   34.1700    0.0000 C   0  0  0  0  0  0  0  0  0  0  0  0
   31.3526   33.5835    0.0000 C   0  0  0  0  0  0  0  0  0  0  0  0
   32.6900   32.9041    0.0000 C   0  0  0  0  0  0  0  0  0  0  0  0
   33.9778   32.1350    0.0000 C   0  0  0  0  0  0  0  0  0  0  0  0
   35.2102   31.2799    0.0000 C   0  0  0  0  0  0  0  0  0  0  0  0
   36.3813   30.3426    0.0000 C   0  0  0  0  0  0  0  0  0  0  0  0
   37.4857   29.3276    0.0000 C   0  0  0  0  0  0  0  0  0  0  0  0
   38.5184   28.2396    0.0000 C   0  0  0  0  0  0  0  0  0  0  0  0
   39.4743   27.0837    0.0000 C   0  0  0  0  0  0  0  0  0  0  0  0
   40.3491   25.8653    0.0000 C   0  0  0  0  0  0  0  0  0  0  0  0
   41.1388   24.5899    0.0000 C   0  0  0  0  0  0  0  0  0  0  0  0
   41.8396   23.2637    0.0000 C   0  0  0  0  0  0  0  0  0  0  0  0
   42.4482   21.8927    0.0000 C   0  0  0  0  0  0  0  0  0  0  0  0
   42.9619   20.4834    0.0000 C   0  0  0  0  0  0  0  0  0  0  0  0
   43.3781   19.0423    0.0000 C   0  0  0  0  0  0  0  0  0  0  0  0
   43.6951   17.5762    0.0000 C   0  0  0  0  0  0  0  0  0  0  0  0
   43.9113   16.0919    0.0000 C   0  0  0  0  0  0  0  0  0  0  0  0
   44.0257   14.5962    0.0000 C   0  0  0  0  0  0  0  0  0  0  0  0
   44.0377   13.0963    0.0000 C   0  0  0  0  0  0  0  0  0  0  0  0
   43.9474   11.5990    0.0000 C   0  0  0  0  0  0  0  0  0  0  0  0
   43.7551   10.1114    0.0000 C   0  0  0  0  0  0  0  0  0  0  0  0
   43.4617    8.6404    0.0000 C   0  0  0  0  0  0  0  0  0  0  0  0
   43.0687    7.1928    0.0000 C   0  0  0  0  0  0  0  0  0  0  0  0
   42.5777    5.7754    0.0000 C   0  0  0  0  0  0  0  0  0  0  0  0
   41.9912    4.3948    0.0000 C   0  0  0  0  0  0  0  0  0  0  0  0
   41.3118    3.0575    0.0000 C   0  0  0  0  0  0  0  0  0  0  0  0
   40.5427    1.7696    0.0000 C   0  0  0  0  0  0  0  0  0  0  0  0
   39.6876    0.5373    0.0000 C   0  0  0  0  0  0  0  0  0  0  0  0
   38.7503   -0.6339    0.0000 C   0  0  0  0  0  0  0  0  0  0  0  0
   37.7354   -1.7383    0.0000 C   0  0  0  0  0  0  0  0  0  0  0  0
   36.6474   -2.7709    0.0000 C   0  0  0  0  0  0  0  0  0  0  0  0
   35.4914   -3.7269    0.0000 C   0  0  0  0  0  0  0  0  0  0  0  0
   34.2730   -4.6017    0.0000 C   0  0  0  0  0  0  0  0  0  0  0  0
   32.9977   -5.3914    0.0000 C   0  0  0  0  0  0  0  0  0  0  0  0
   31.6714   -6.0921    0.0000 C   0  0  0  0  0  0  0  0  0  0  0  0
   30.3004   -6.7008    0.0000 C   0  0  0  0  0  0  0  0  0  0  0  0
   28.8911   -7.2144    0.0000 C   0  0  0  0  0  0  0  0  0  0  0  0
   27.4501   -7.6307    0.0000 C   0  0  0  0  0  0  0  0  0  0  0  0
   25.9839   -7.9477    0.0000 C   0  0  0  0  0  0  0  0  0  0  0  0
   24.4996   -8.1639    0.0000 C   0  0  0  0  0  0  0  0  0  0  0  0
   23.0040   -8.2783    0.0000 C   0  0  0  0  0  0  0  0  0  0  0  0
   21.5040   -8.2903    0.0000 C   0  0  0  0  0  0  0  0  0  0  0  0
   20.0067   -8.2000    0.0000 C   0  0  0  0  0  0  0  0  0  0  0  0
   18.5191   -8.0077    0.0000 C   0  0  0  0  0  0  0  0  0  0  0  0
   17.0481   -7.7143    0.0000 C   0  0  0  0  0  0  0  0  0  0  0  0
   15.6005   -7.3212    0.0000 C   0  0  0  0  0  0  0  0  0  0  0  0
   14.1831   -6.8303    0.0000 C   0  0  0  0  0  0  0  0  0  0  0  0
   12.8025   -6.2437    0.0000 C   0  0  0  0  0  0  0  0  0  0  0  0
   11.4652   -5.5644    0.0000 C   0  0  0  0  0  0  0  0  0  0  0  0
   10.1774   -4.7953    0.0000 C   0  0  0  0  0  0  0  0  0  0  0  0
    8.9450   -3.9402    0.0000 C   0  0  0  0  0  0  0  0  0  0  0  0
    7.7739   -3.0029    0.0000 C   0  0  0  0  0  0  0  0  0  0  0  0
    6.6694   -1.9879    0.0000 C   0  0  0  0  0  0  0  0  0  0  0  0
    5.6368   -0.8999    0.0000 C   0  0  0  0  0  0  0  0  0  0  0  0
    4.6809    0.2560    0.0000 C   0  0  0  0  0  0  0  0  0  0  0  0
    3.8060    1.4745    0.0000 C   0  0  0  0  0  0  0  0  0  0  0  0
    3.3816   -0.0000    0.0000 C   0  0  0  0  0  0  0  0  0  0  0  0
    3.1533   -1.2216    0.0000 C   0  0  0  0  0  0  0  0  0  0  0  0
    2.4991   -2.2782    0.0000 C   0  0  0  0  0  0  0  0  0  0  0  0
    1.5073   -3.0271    0.0000 C   0  0  0  0  0  0  0  0  0  0  0  0
    0.3120   -3.3672    0.0000 C   0  0  0  0  0  0  0  0  0  0  0  0
   -0.9254   -3.2526    0.0000 C   0  0  0  0  0  0  0  0  0  0  0  0
   -2.0379   -2.6986    0.0000 C   0  0  0  0  0  0  0  0  0  0  0  0
   -2.8751   -1.7802    0.0000 C   0  0  0  0  0  0  0  0  0  0  0  0
   -3.3241   -0.6214    0.0000 C   0  0  0  0  0  0  0  0  0  0  0  0
   -3.3241    0.6214    0.0000 C   0  0  0  0  0  0  0  0  0  0  0  0
   -2.8751    1.7802    0.0000 C   0  0  0  0  0  0  0  0  0  0  0  0
   -2.0379    2.6986    0.0000 C   0  0  0  0  0  0  0  0  0  0  0  0
   -0.9254    3.2526    0.0000 C   0  0  0  0  0  0  0  0  0  0  0  0
    0.3120    3.3672    0.0000 C   0  0  0  0  0  0  0  0  0  0  0  0
    1.5073    3.0271    0.0000 C   0  0  0  0  0  0  0  0  0  0  0  0
    3.0164    2.7498    0.0000 C   0  0  0  0  0  0  0  0  0  0  0  0
  1  2  1  0
  2  3  1  0
  3  4  1  0
  4  5  1  0
  5  6  1  0
  6  7  1  0
  7  8  1  0
  8  9  1  0
  9 10  1  0
 10 11  1  0
 11 12  1  0
 12 13  1  0
 13 14  1  0
 14 15  1  0
 15 16  1  0
 16 17  1  0
 17 18  1  0
 18 19  1  0
 19 20  1  0
 20 21  1  0
 21 22  1  0
 22 23  1  0
 23 24  1  0
 24 25  1  0
 25 26  1  0
 26 27  1  0
 27 28  1  0
 28 29  1  0
 29 30  1  0
 30 31  1  0
 31 32  1  0
 32 33  1  0
 33 34  1  0
 34 35  1  0
 35 36  1  0
 36 37  1  0
 37 38  1  0
 38 39  1  0
 39 40  1  0
 40 41  1  0
 41 42  1  0
 42 43  1  0
 43 44  1  0
 44 45  1  0
 45 46  1  0
 46 47  1  0
 47 48  1  0
 48 49  1  0
 49 50  1  0
 50 51  1  0
 51 52  1  0
 52 53  1  0
 53 54  1  0
 54 55  1  0
 55 56  1  0
 56 57  1  0
 57 58  1  0
 58 59  1  0
 59 60  1  0
 60 61  1  0
 61 62  1  0
 62 63  1  0
 63 64  1  0
 64 65  1  0
 65 66  1  0
 66 67  1  0
 67 68  1  0
 68 69  1  0
 69 70  1  0
 70 71  1  0
 71 72  1  0
 72 73  1  0
 73 74  1  0
 74 75  1  0
 75 76  1  0
 76 77  1  0
 77 78  1  0
 78 79  1  0
 79 80  1  0
 80 81  1  0
 81 82  1  0
 82 83  1  0
 83 84  1  0
 84 85  1  0
 85 86  1  0
 86 87  1  0
 87 88  1  0
 88 89  1  0
 89 90  1  0
 90 91  1  0
 91 92  1  0
 92 93  1  0
 93 94  1  0
 94 95  1  0
 95 96  1  0
 96 97  1  0
 97 98  1  0
 98 99  1  0
 99100  1  0
100101  1  0
101102  1  0
102103  1  0
103104  2  0
104105  1  0
105106  2  0
106107  1  0
107108  2  0
108  2  1  0
108 92  1  0
M  END
>  <Title>  (160) 
idAAEFgen14

$$$$

     RDKit          2D

  7  6  0  0  0  0  0  0  0  0999 V2000
    0.0000    0.0000    0.0000 C   0  0  0  0  0  0  0  0  0  0  0  0
    1.2990    0.7500    0.0000 C   0  0  0  0  0  0  0  0  0  0  0  0
    2.5981   -0.0000    0.0000 C   0  0  0  0  0  0  0  0  0  0  0  0
    1.2990    2.2500    0.0000 C   0  0  0  0  0  0  0  0  0  0  0  0
    2.5981    3.0000    0.0000 C   0  0  0  0  0  0  0  0  0  0  0  0
    2.5981    4.5000    0.0000 C   0  0  0  0  0  0  0  0  0  0  0  0
    3.8971    2.2500    0.0000 C   0  0  0  0  0  0  0  0  0  0  0  0
  1  2  1  0
  2  3  1  0
  2  4  1  0
  4  5  1  0
  5  6  1  0
  5  7  1  0
M  END
>  <Title>  (161) 
idAAEGgen14

$$$$

     RDKit          2D

122121  0  0  0  0  0  0  0  0999 V2000
    0.0000    0.0000    0.0000 C   0  0  0  0  0  0  0  0  0  0  0  0
    1.2990    0.7500    0.0000 C   0  0  0  0  0  0  0  0  0  0  0  0
    2.5981   -0.0000    0.0000 C   0  0  0  0  0  0  0  0  0  0  0  0
    3.8971    0.7500    0.0000 C   0  0  0  0  0  0  0  0  0  0  0  0
    5.1962   -0.0000    0.0000 C   0  0  0  0  0  0  0  0  0  0  0  0
    6.4952    0.7500    0.0000 C   0  0  0  0  0  0  0  0  0  0  0  0
    7.7942   -0.0000    0.0000 C   0  0  0  0  0  0  0  0  0  0  0  0
    9.0933    0.7500    0.0000 C   0  0  0  0  0  0  0  0  0  0  0  0
   10.3923   -0.0000    0.0000 C   0  0  0  0  0  0  0  0  0  0  0  0
   11.6913    0.7500    0.0000 C   0  0  0  0  0  0  0  0  0  0  0  0
   12.9904   -0.0000    0.0000 C   0  0  0  0  0  0  0  0  0  0  0  0
   14.2894    0.7500    0.0000 C   0  0  0  0  0  0  0  0  0  0  0  0
   15.5885   -0.0000    0.0000 C   0  0  0  0  0  0  0  0  0  0  0  0
   16.8875    0.7500    0.0000 C   0  0  0  0  0  0  0  0  0  0  0  0
   18.1865   -0.0000    0.0000 C   0  0  0  0  0  0  0  0  0  0  0  0
   19.4856    0.7500    0.0000 C   0  0  0  0  0  0  0  0  0  0  0  0
   20.7846   -0.0000    0.0000 C   0  0  0  0  0  0  0  0  0  0  0  0
   22.0836    0.7500    0.0000 C   0  0  0  0  0  0  0  0  0  0  0  0
   23.3827   -0.0000    0.0000 C   0  0  0  0  0  0  0  0  0  0  0  0
   24.6817    0.7500    0.0000 C   0  0  0  0  0  0  0  0  0  0  0  0
   25.9808   -0.0000    0.0000 C   0  0  0  0  0  0  0  0  0  0  0  0
   27.2798    0.7500    0.0000 C   0  0  0  0  0  0  0  0  0  0  0  0
   28.5788   -0.0000    0.0000 C   0  0  0  0  0  0  0  0  0  0  0  0
   29.8779    0.7500    0.0000 C   0  0  0  0  0  0  0  0  0  0  0  0
   31.1769   -0.0000    0.0000 C   0  0  0  0  0  0  0  0  0  0  0  0
   32.4760    0.7500    0.0000 C   0  0  0  0  0  0  0  0  0  0  0  0
   33.7750   -0.0000    0.0000 C   0  0  0  0  0  0  0  0  0  0  0  0
   35.0740    0.7500    0.0000 C   0  0  0  0  0  0  0  0  0  0  0  0
   36.3731   -0.0000    0.0000 C   0  0  0  0  0  0  0  0  0  0  0  0
   37.6721    0.7500    0.0000 C   0  0  0  0  0  0  0  0  0  0  0  0
   38.9711   -0.0000    0.0000 C   0  0  0  0  0  0  0  0  0  0  0  0
   40.2702    0.7500    0.0000 C   0  0  0  0  0  0  0  0  0  0  0  0
   41.5692   -0.0000    0.0000 C   0  0  0  0  0  0  0  0  0  0  0  0
   42.8683    0.7500    0.0000 C   0  0  0  0  0  0  0  0  0  0  0  0
   44.1673   -0.0000    0.0000 C   0  0  0  0  0  0  0  0  0  0  0  0
   45.4663    0.7500    0.0000 C   0  0  0  0  0  0  0  0  0  0  0  0
   46.7654   -0.0000    0.0000 C   0  0  0  0  0  0  0  0  0  0  0  0
   48.0644    0.7500    0.0000 C   0  0  0  0  0  0  0  0  0  0  0  0
   49.3634   -0.0000    0.0000 C   0  0  0  0  0  0  0  0  0  0  0  0
   50.6625    0.7500    0.0000 C   0  0  0  0  0  0  0  0  0  0  0  0
   51.9615   -0.0000    0.0000 C   0  0  0  0  0  0  0  0  0  0  0  0
   53.2606    0.7500    0.0000 C   0  0  0  0  0  0  0  0  0  0  0  0
   54.5596   -0.0000    0.0000 C   0  0  0  0  0  0  0  0  0  0  0  0
   55.8586    0.7500    0.0000 C   0  0  0  0  0  0  0  0  0  0  0  0
   57.1577   -0.0000    0.0000 C   0  0  0  0  0  0  0  0  0  0  0  0
   58.4567    0.7500    0.0000 C   0  0  0  0  0  0  0  0  0  0  0  0
   59.7558   -0.0000    0.0000 C   0  0  0  0  0  0  0  0  0  0  0  0
   61.0548    0.7500    0.0000 C   0  0  0  0  0  0  0  0  0  0  0  0
   62.3538   -0.0000    0.0000 C   0  0  0  0  0  0  0  0  0  0  0  0
   63.6529    0.7500    0.0000 C   0  0  0  0  0  0  0  0  0  0  0  0
   64.9519   -0.0000    0.0000 C   0  0  0  0  0  0  0  0  0  0  0  0
   66.2509    0.7500    0.0000 C   0  0  0  0  0  0  0  0  0  0  0  0
   67.5500   -0.0000    0.0000 C   0  0  0  0  0  0  0  0  0  0  0  0
   68.8490    0.7500    0.0000 C   0  0  0  0  0  0  0  0  0  0  0  0
   70.1481   -0.0000    0.0000 C   0  0  0  0  0  0  0  0  0  0  0  0
   71.4471    0.7500    0.0000 C   0  0  0  0  0  0  0  0  0  0  0  0
   72.7461   -0.0000    0.0000 C   0  0  0  0  0  0  0  0  0  0  0  0
   74.0452    0.7500    0.0000 C   0  0  0  0  0  0  0  0  0  0  0  0
   75.3442   -0.0000    0.0000 C   0  0  0  0  0  0  0  0  0  0  0  0
   76.6432    0.7500    0.0000 C   0  0  0  0  0  0  0  0  0  0  0  0
   77.9423   -0.0000    0.0000 C   0  0  0  0  0  0  0  0  0  0  0  0
   79.2413    0.7500    0.0000 C   0  0  0  0  0  0  0  0  0  0  0  0
   80.5404   -0.0000    0.0000 C   0  0  0  0  0  0  0  0  0  0  0  0
   81.8394    0.7500    0.0000 C   0  0  0  0  0  0  0  0  0  0  0  0
   83.1384   -0.0000    0.0000 C   0  0  0  0  0  0  0  0  0  0  0  0
   84.4375    0.7500    0.0000 C   0  0  0  0  0  0  0  0  0  0  0  0
   85.7365   -0.0000    0.0000 C   0  0  0  0  0  0  0  0  0  0  0  0
   87.0356    0.7500    0.0000 C   0  0  0  0  0  0  0  0  0  0  0  0
   88.3346   -0.0000    0.0000 C   0  0  0  0  0  0  0  0  0  0  0  0
   89.6336    0.7500    0.0000 C   0  0  0  0  0  0  0  0  0  0  0  0
   90.9327   -0.0000    0.0000 C   0  0  0  0  0  0  0  0  0  0  0  0
   92.2317    0.7500    0.0000 C   0  0  0  0  0  0  0  0  0  0  0  0
   93.5307   -0.0000    0.0000 C   0  0  0  0  0  0  0  0  0  0  0  0
   94.8298    0.7500    0.0000 C   0  0  0  0  0  0  0  0  0  0  0  0
   96.1288   -0.0000    0.0000 C   0  0  0  0  0  0  0  0  0  0  0  0
   97.4279    0.7500    0.0000 C   0  0  0  0  0  0  0  0  0  0  0  0
   98.7269   -0.0000    0.0000 C   0  0  0  0  0  0  0  0  0  0  0  0
  100.0259    0.7500    0.0000 C   0  0  0  0  0  0  0  0  0  0  0  0
  101.3250   -0.0000    0.0000 C   0  0  0  0  0  0  0  0  0  0  0  0
  102.6240    0.7500    0.0000 C   0  0  0  0  0  0  0  0  0  0  0  0
  103.9230   -0.0000    0.0000 C   0  0  0  0  0  0  0  0  0  0  0  0
  105.2221    0.7500    0.0000 C   0  0  0  0  0  0  0  0  0  0  0  0
  106.5211   -0.0000    0.0000 C   0  0  0  0  0  0  0  0  0  0  0  0
  107.8202    0.7500    0.0000 C   0  0  0  0  0  0  0  0  0  0  0  0
  109.1192   -0.0000    0.0000 C   0  0  0  0  0  0  0  0  0  0  0  0
  110.4182    0.7500    0.0000 C   0  0  0  0  0  0  0  0  0  0  0  0
  111.7173   -0.0000    0.0000 C   0  0  0  0  0  0  0  0  0  0  0  0
  113.0163    0.7500    0.0000 C   0  0  0  0  0  0  0  0  0  0  0  0
  114.3154   -0.0000    0.0000 C   0  0  0  0  0  0  0  0  0  0  0  0
  115.6144    0.7500    0.0000 C   0  0  0  0  0  0  0  0  0  0  0  0
  116.9134   -0.0000    0.0000 C   0  0  0  0  0  0  0  0  0  0  0  0
  118.2125    0.7500    0.0000 C   0  0  0  0  0  0  0  0  0  0  0  0
  119.5115   -0.0000    0.0000 C   0  0  0  0  0  0  0  0  0  0  0  0
  120.8105    0.7500    0.0000 C   0  0  0  0  0  0  0  0  0  0  0  0
  122.1096   -0.0000    0.0000 C   0  0  0  0  0  0  0  0  0  0  0  0
  123.4086    0.7500    0.0000 C   0  0  0  0  0  0  0  0  0  0  0  0
  124.7077   -0.0000    0.0000 C   0  0  0  0  0  0  0  0  0  0  0  0
  126.0067    0.7500    0.0000 C   0  0  0  0  0  0  0  0  0  0  0  0
  127.3057   -0.0000    0.0000 C   0  0  0  0  0  0  0  0  0  0  0  0
  128.6048    0.7500    0.0000 C   0  0  0  0  0  0  0  0  0  0  0  0
  129.9038   -0.0000    0.0000 C   0  0  0  0  0  0  0  0  0  0  0  0
  131.2028    0.7500    0.0000 C   0  0  0  0  0  0  0  0  0  0  0  0
  132.5019   -0.0000    0.0000 C   0  0  0  0  0  0  0  0  0  0  0  0
  133.8009    0.7500    0.0000 C   0  0  0  0  0  0  0  0  0  0  0  0
  135.1000   -0.0000    0.0000 C   0  0  0  0  0  0  0  0  0  0  0  0
  136.3990    0.7500    0.0000 C   0  0  0  0  0  0  0  0  0  0  0  0
  137.6980   -0.0000    0.0000 C   0  0  0  0  0  0  0  0  0  0  0  0
  138.9971    0.7500    0.0000 C   0  0  0  0  0  0  0  0  0  0  0  0
  140.2961   -0.0000    0.0000 C   0  0  0  0  0  0  0  0  0  0  0  0
  141.5952    0.7500    0.0000 C   0  0  0  0  0  0  0  0  0  0  0  0
  142.8942   -0.0000    0.0000 C   0  0  0  0  0  0  0  0  0  0  0  0
  144.1932    0.7500    0.0000 C   0  0  0  0  0  0  0  0  0  0  0  0
  145.4923   -0.0000    0.0000 C   0  0  0  0  0  0  0  0  0  0  0  0
  146.7913    0.7500    0.0000 C   0  0  0  0  0  0  0  0  0  0  0  0
  148.0903   -0.0000    0.0000 C   0  0  0  0  0  0  0  0  0  0  0  0
  149.3894    0.7500    0.0000 C   0  0  0  0  0  0  0  0  0  0  0  0
  150.6884   -0.0000    0.0000 C   0  0  0  0  0  0  0  0  0  0  0  0
  151.9875    0.7500    0.0000 C   0  0  0  0  0  0  0  0  0  0  0  0
  153.2865   -0.0000    0.0000 C   0  0  0  0  0  0  0  0  0  0  0  0
  154.5855    0.7500    0.0000 C   0  0  0  0  0  0  0  0  0  0  0  0
  155.8846   -0.0000    0.0000 C   0  0  0  0  0  0  0  0  0  0  0  0
  157.1836    0.7500    0.0000 C   0  0  0  0  0  0  0  0  0  0  0  0
  1  2  2  0
  2  3  1  0
  3  4  2  3
  4  5  1  0
  5  6  2  3
  6  7  1  0
  7  8  2  3
  8  9  1  0
  9 10  2  3
 10 11  1  0
 11 12  1  0
 12 13  1  0
 13 14  1  0
 14 15  1  0
 15 16  1  0
 16 17  1  0
 17 18  1  0
 18 19  1  0
 19 20  1  0
 20 21  1  0
 21 22  1  0
 22 23  1  0
 23 24  1  0
 24 25  1  0
 25 26  1  0
 26 27  1  0
 27 28  1  0
 28 29  1  0
 29 30  1  0
 30 31  1  0
 31 32  1  0
 32 33  1  0
 33 34  1  0
 34 35  1  0
 35 36  1  0
 36 37  1  0
 37 38  1  0
 38 39  1  0
 39 40  1  0
 40 41  1  0
 41 42  1  0
 42 43  1  0
 43 44  1  0
 44 45  1  0
 45 46  1  0
 46 47  1  0
 47 48  1  0
 48 49  1  0
 49 50  1  0
 50 51  1  0
 51 52  1  0
 52 53  1  0
 53 54  1  0
 54 55  1  0
 55 56  1  0
 56 57  1  0
 57 58  1  0
 58 59  1  0
 59 60  1  0
 60 61  1  0
 61 62  1  0
 62 63  1  0
 63 64  1  0
 64 65  1  0
 65 66  1  0
 66 67  1  0
 67 68  1  0
 68 69  1  0
 69 70  1  0
 70 71  1  0
 71 72  1  0
 72 73  1  0
 73 74  1  0
 74 75  1  0
 75 76  1  0
 76 77  1  0
 77 78  1  0
 78 79  1  0
 79 80  1  0
 80 81  1  0
 81 82  1  0
 82 83  1  0
 83 84  1  0
 84 85  1  0
 85 86  1  0
 86 87  1  0
 87 88  1  0
 88 89  1  0
 89 90  1  0
 90 91  1  0
 91 92  1  0
 92 93  1  0
 93 94  1  0
 94 95  1  0
 95 96  1  0
 96 97  1  0
 97 98  1  0
 98 99  1  0
 99100  1  0
100101  1  0
101102  1  0
102103  1  0
103104  1  0
104105  1  0
105106  1  0
106107  1  0
107108  1  0
108109  1  0
109110  1  0
110111  1  0
111112  1  0
112113  1  0
113114  1  0
114115  1  0
115116  1  0
116117  1  0
117118  1  0
118119  1  0
119120  1  0
120121  2  3
121122  1  0
M  END
>  <Title>  (162) 
idAAEHgen14

$$$$

     RDKit          2D

 37 41  0  0  0  0  0  0  0  0999 V2000
   -6.0000   -5.1962    0.0000 C   0  0  0  0  0  0  0  0  0  0  0  0
   -5.2500   -3.8971    0.0000 C   0  0  0  0  0  0  0  0  0  0  0  0
   -3.7500   -3.8971    0.0000 C   0  0  0  0  0  0  0  0  0  0  0  0
   -3.0000   -2.5981    0.0000 N   0  0  0  0  0  0  0  0  0  0  0  0
   -1.5000   -2.5981    0.0000 C   0  0  0  0  0  0  0  0  0  0  0  0
   -0.7500   -3.8971    0.0000 C   0  0  0  0  0  0  0  0  0  0  0  0
    0.7500   -3.8971    0.0000 C   0  0  0  0  0  0  0  0  0  0  0  0
    1.5000   -2.5981    0.0000 C   0  0  0  0  0  0  0  0  0  0  0  0
    3.0000   -2.5981    0.0000 C   0  0  0  0  0  0  0  0  0  0  0  0
    3.7500   -1.2990    0.0000 O   0  0  0  0  0  0  0  0  0  0  0  0
    3.7500   -3.8971    0.0000 N   0  0  0  0  0  0  0  0  0  0  0  0
    5.2500   -3.8971    0.0000 C   0  0  0  0  0  0  0  0  0  0  0  0
    6.1317   -2.6836    0.0000 N   0  0  0  0  0  0  0  0  0  0  0  0
    7.5583   -3.1471    0.0000 N   0  0  0  0  0  0  0  0  0  0  0  0
    7.5583   -4.6471    0.0000 N   0  0  0  0  0  0  0  0  0  0  0  0
    6.1317   -5.1106    0.0000 N   0  0  0  0  0  0  0  0  0  0  0  0
    5.6682   -6.5372    0.0000 N   0  0  0  0  0  0  0  0  0  0  0  0
    6.5498   -7.7508    0.0000 C   0  0  0  0  0  0  0  0  0  0  0  0
    5.6682   -8.9643    0.0000 C   0  0  0  0  0  0  0  0  0  0  0  0
    4.2416   -8.5008    0.0000 N   0  0  0  0  0  0  0  0  0  0  0  0
    3.0280   -9.3824    0.0000 C   0  0  0  0  0  0  0  0  0  0  0  0
    3.1848  -10.8742    0.0000 O   0  0  0  0  0  0  0  0  0  0  0  0
    1.6577   -8.7723    0.0000 N   0  0  0  0  0  0  0  0  0  0  0  0
    0.4442   -9.6540    0.0000 C   0  0  0  0  0  0  0  0  0  0  0  0
   -0.9261   -9.0439    0.0000 N   0  0  0  0  0  0  0  0  0  0  0  0
   -2.1396   -9.9256    0.0000 N   0  0  0  0  0  0  0  0  0  0  0  0
   -1.9829  -11.4174    0.0000 N   0  0  0  0  0  0  0  0  0  0  0  0
   -0.6125  -12.0275    0.0000 N   0  0  0  0  0  0  0  0  0  0  0  0
    0.6010  -11.1458    0.0000 N   0  0  0  0  0  0  0  0  0  0  0  0
    4.2416   -7.0008    0.0000 C   0  0  0  0  0  0  0  0  0  0  0  0
    3.0280   -6.1191    0.0000 O   0  0  0  0  0  0  0  0  0  0  0  0
    0.7500   -1.2990    0.0000 C   0  0  0  0  0  0  0  0  0  0  0  0
    1.5000    0.0000    0.0000 C   0  0  0  0  0  0  0  0  0  0  0  0
    0.7500    1.2990    0.0000 C   0  0  0  0  0  0  0  0  0  0  0  0
   -0.7500    1.2990    0.0000 C   0  0  0  0  0  0  0  0  0  0  0  0
   -1.5000    0.0000    0.0000 C   0  0  0  0  0  0  0  0  0  0  0  0
   -0.7500   -1.2990    0.0000 C   0  0  0  0  0  0  0  0  0  0  0  0
  1  2  1  0
  2  3  2  3
  3  4  1  0
  4  5  1  0
  5  6  2  0
  6  7  1  0
  7  8  2  0
  8  9  1  0
  9 10  2  0
  9 11  1  0
 11 12  1  0
 12 13  2  0
 13 14  1  0
 14 15  2  0
 15 16  1  0
 16 17  1  0
 17 18  1  0
 18 19  1  0
 19 20  1  0
 20 21  1  0
 21 22  2  0
 21 23  1  0
 23 24  1  0
 24 25  2  0
 25 26  1  0
 26 27  2  0
 27 28  1  0
 28 29  2  0
 20 30  1  0
 30 31  2  0
  8 32  1  0
 32 33  2  0
 33 34  1  0
 34 35  2  0
 35 36  1  0
 36 37  2  0
 37  5  1  0
 16 12  1  0
 30 17  1  0
 37 32  1  0
 29 24  1  0
M  END
>  <Title>  (163) 
idAAEIgen14

$$$$

     RDKit          2D

 10 10  0  0  0  0  0  0  0  0999 V2000
    5.7760   -2.5981    0.0000 C   0  0  0  0  0  0  0  0  0  0  0  0
    5.0260   -1.2990    0.0000 N   0  0  0  0  0  0  0  0  0  0  0  0
    3.5260   -1.2990    0.0000 C   0  0  0  0  0  0  0  0  0  0  0  0
    2.7760   -2.5981    0.0000 O   0  0  0  0  0  0  0  0  0  0  0  0
    2.7760    0.0000    0.0000 C   0  0  0  0  0  0  0  0  0  0  0  0
    1.2760    0.0000    0.0000 C   0  0  0  0  0  0  0  0  0  0  0  0
    0.3943    1.2135    0.0000 C   0  0  0  0  0  0  0  0  0  0  0  0
   -1.0323    0.7500    0.0000 C   0  0  0  0  0  0  0  0  0  0  0  0
   -1.0323   -0.7500    0.0000 C   0  0  0  0  0  0  0  0  0  0  0  0
    0.3943   -1.2135    0.0000 N   0  0  0  0  0  0  0  0  0  0  0  0
  1  2  1  0
  2  3  1  0
  3  4  2  0
  3  5  1  0
  5  6  1  0
  6  7  2  0
  7  8  1  0
  8  9  1  0
  9 10  2  0
 10  6  1  0
M  END
>  <Title>  (164) 
idAAEJgen14

$$$$

     RDKit          2D

 12 12  0  0  0  0  0  0  0  0999 V2000
    8.0260   -3.8971    0.0000 C   0  0  0  0  0  0  0  0  0  0  0  0
    7.2760   -2.5981    0.0000 C   0  0  0  0  0  0  0  0  0  0  0  0
    5.7760   -2.5981    0.0000 C   0  0  0  0  0  0  0  0  0  0  0  0
    5.0260   -1.2990    0.0000 C   0  0  0  0  0  0  0  0  0  0  0  0
    5.7760    0.0000    0.0000 O   0  0  0  0  0  0  0  0  0  0  0  0
    3.5260   -1.2990    0.0000 N   0  0  0  0  0  0  0  0  0  0  0  0
    2.7760    0.0000    0.0000 C   0  0  0  0  0  0  0  0  0  0  0  0
    1.2760    0.0000    0.0000 C   0  0  0  0  0  0  0  0  0  0  0  0
    0.3943    1.2135    0.0000 C   0  0  0  0  0  0  0  0  0  0  0  0
   -1.0323    0.7500    0.0000 C   0  0  0  0  0  0  0  0  0  0  0  0
   -1.0323   -0.7500    0.0000 C   0  0  0  0  0  0  0  0  0  0  0  0
    0.3943   -1.2135    0.0000 C   0  0  0  0  0  0  0  0  0  0  0  0
  1  2  1  0
  2  3  1  0
  3  4  1  0
  4  5  2  0
  4  6  1  0
  6  7  1  0
  7  8  1  0
  8  9  2  0
  9 10  1  0
 10 11  2  0
 11 12  1  0
 12  8  1  0
M  END
>  <Title>  (165) 
idAAEKgen14

$$$$

     RDKit          2D

 37 41  0  0  0  0  0  0  0  0999 V2000
   -3.1965   -1.7857    0.0000 C   0  0  0  0  0  0  0  0  0  0  0  0
   -1.8107   -2.3597    0.0000 C   0  0  0  0  0  0  0  0  0  0  0  0
   -1.8107   -3.8597    0.0000 C   0  0  0  0  0  0  0  0  0  0  0  0
   -0.7500   -4.9204    0.0000 C   0  0  0  0  0  0  0  0  0  0  0  0
    0.7500   -4.9204    0.0000 C   0  0  0  0  0  0  0  0  0  0  0  0
    1.8107   -3.8597    0.0000 C   0  0  0  0  0  0  0  0  0  0  0  0
    1.8107   -2.3597    0.0000 C   0  0  0  0  0  0  0  0  0  0  0  0
    3.1965   -1.7857    0.0000 C   0  0  0  0  0  0  0  0  0  0  0  0
    3.3923   -0.2985    0.0000 O   0  0  0  0  0  0  0  0  0  0  0  0
    4.3865   -2.6988    0.0000 N   0  0  0  0  0  0  0  0  0  0  0  0
    5.7723   -2.1248    0.0000 C   0  0  0  0  0  0  0  0  0  0  0  0
    6.1225   -0.6662    0.0000 N   0  0  0  0  0  0  0  0  0  0  0  0
    7.6179   -0.5485    0.0000 N   0  0  0  0  0  0  0  0  0  0  0  0
    8.1919   -1.9344    0.0000 N   0  0  0  0  0  0  0  0  0  0  0  0
    7.0513   -2.9085    0.0000 N   0  0  0  0  0  0  0  0  0  0  0  0
    7.1690   -4.4039    0.0000 N   0  0  0  0  0  0  0  0  0  0  0  0
    8.4479   -5.1877    0.0000 C   0  0  0  0  0  0  0  0  0  0  0  0
    8.0978   -6.6462    0.0000 C   0  0  0  0  0  0  0  0  0  0  0  0
    6.6024   -6.7639    0.0000 N   0  0  0  0  0  0  0  0  0  0  0  0
    5.8186   -8.0429    0.0000 C   0  0  0  0  0  0  0  0  0  0  0  0
    6.5344   -9.3611    0.0000 O   0  0  0  0  0  0  0  0  0  0  0  0
    4.3192   -8.0036    0.0000 N   0  0  0  0  0  0  0  0  0  0  0  0
    3.5354   -9.2826    0.0000 C   0  0  0  0  0  0  0  0  0  0  0  0
    2.0359   -9.2433    0.0000 N   0  0  0  0  0  0  0  0  0  0  0  0
    1.2522  -10.5223    0.0000 N   0  0  0  0  0  0  0  0  0  0  0  0
    1.9679  -11.8405    0.0000 N   0  0  0  0  0  0  0  0  0  0  0  0
    3.4674  -11.8797    0.0000 N   0  0  0  0  0  0  0  0  0  0  0  0
    4.2512  -10.6008    0.0000 N   0  0  0  0  0  0  0  0  0  0  0  0
    6.0284   -5.3781    0.0000 C   0  0  0  0  0  0  0  0  0  0  0  0
    4.5698   -5.0279    0.0000 O   0  0  0  0  0  0  0  0  0  0  0  0
    0.7500   -1.2990    0.0000 C   0  0  0  0  0  0  0  0  0  0  0  0
    1.5000    0.0000    0.0000 C   0  0  0  0  0  0  0  0  0  0  0  0
    0.7500    1.2990    0.0000 C   0  0  0  0  0  0  0  0  0  0  0  0
   -0.7500    1.2990    0.0000 C   0  0  0  0  0  0  0  0  0  0  0  0
   -1.5000    2.5981    0.0000 O   0  0  0  0  0  0  0  0  0  0  0  0
   -1.5000    0.0000    0.0000 C   0  0  0  0  0  0  0  0  0  0  0  0
   -0.7500   -1.2990    0.0000 C   0  0  0  0  0  0  0  0  0  0  0  0
  1  2  1  0
  2  3  1  0
  3  4  1  0
  4  5  1  0
  5  6  1  0
  6  7  1  0
  7  8  1  0
  8  9  2  0
  8 10  1  0
 10 11  1  0
 11 12  2  0
 12 13  1  0
 13 14  2  0
 14 15  1  0
 15 16  1  0
 16 17  1  0
 17 18  1  0
 18 19  1  0
 19 20  1  0
 20 21  2  0
 20 22  1  0
 22 23  1  0
 23 24  2  0
 24 25  1  0
 25 26  2  0
 26 27  1  0
 27 28  2  0
 19 29  1  0
 29 30  2  0
  7 31  1  0
 31 32  2  0
 32 33  1  0
 33 34  2  0
 34 35  1  0
 34 36  1  0
 36 37  2  0
 37  2  1  0
 15 11  1  0
 29 16  1  0
 37 31  1  0
 28 23  1  0
M  END
>  <Title>  (166) 
idAAELgen14

$$$$

     RDKit          2D

 32 36  0  0  0  0  0  0  0  0999 V2000
    1.1491   -3.5623    0.0000 C   0  0  0  0  0  0  0  0  0  0  0  0
   -0.0000   -2.5981    0.0000 C   0  0  0  0  0  0  0  0  0  0  0  0
   -1.1491   -3.5623    0.0000 C   0  0  0  0  0  0  0  0  0  0  0  0
   -0.8886   -5.0395    0.0000 C   0  0  0  0  0  0  0  0  0  0  0  0
    0.5209   -5.5525    0.0000 O   0  0  0  0  0  0  0  0  0  0  0  0
   -2.0377   -6.0037    0.0000 N   0  0  0  0  0  0  0  0  0  0  0  0
   -1.7772   -7.4809    0.0000 C   0  0  0  0  0  0  0  0  0  0  0  0
   -0.4290   -8.1384    0.0000 N   0  0  0  0  0  0  0  0  0  0  0  0
   -0.6378   -9.6238    0.0000 N   0  0  0  0  0  0  0  0  0  0  0  0
   -2.1150   -9.8843    0.0000 N   0  0  0  0  0  0  0  0  0  0  0  0
   -2.8192   -8.5599    0.0000 N   0  0  0  0  0  0  0  0  0  0  0  0
   -4.3046   -8.3511    0.0000 N   0  0  0  0  0  0  0  0  0  0  0  0
   -5.3466   -9.4301    0.0000 C   0  0  0  0  0  0  0  0  0  0  0  0
   -6.6948   -8.7726    0.0000 C   0  0  0  0  0  0  0  0  0  0  0  0
   -6.4860   -7.2872    0.0000 N   0  0  0  0  0  0  0  0  0  0  0  0
   -7.5650   -6.2452    0.0000 C   0  0  0  0  0  0  0  0  0  0  0  0
   -9.0069   -6.6586    0.0000 O   0  0  0  0  0  0  0  0  0  0  0  0
   -7.2021   -4.7897    0.0000 N   0  0  0  0  0  0  0  0  0  0  0  0
   -8.2811   -3.7477    0.0000 C   0  0  0  0  0  0  0  0  0  0  0  0
   -7.9183   -2.2923    0.0000 N   0  0  0  0  0  0  0  0  0  0  0  0
   -8.9973   -1.2503    0.0000 N   0  0  0  0  0  0  0  0  0  0  0  0
  -10.4392   -1.6638    0.0000 N   0  0  0  0  0  0  0  0  0  0  0  0
  -10.8020   -3.1192    0.0000 N   0  0  0  0  0  0  0  0  0  0  0  0
   -9.7230   -4.1612    0.0000 N   0  0  0  0  0  0  0  0  0  0  0  0
   -5.0088   -7.0267    0.0000 C   0  0  0  0  0  0  0  0  0  0  0  0
   -4.3512   -5.6785    0.0000 O   0  0  0  0  0  0  0  0  0  0  0  0
    0.7500   -1.2990    0.0000 C   0  0  0  0  0  0  0  0  0  0  0  0
    1.5000    0.0000    0.0000 C   0  0  0  0  0  0  0  0  0  0  0  0
    0.7500    1.2990    0.0000 C   0  0  0  0  0  0  0  0  0  0  0  0
   -0.7500    1.2990    0.0000 C   0  0  0  0  0  0  0  0  0  0  0  0
   -1.5000    0.0000    0.0000 C   0  0  0  0  0  0  0  0  0  0  0  0
   -0.7500   -1.2990    0.0000 C   0  0  0  0  0  0  0  0  0  0  0  0
  1  2  1  0
  2  3  1  0
  3  4  1  0
  4  5  2  0
  4  6  1  0
  6  7  1  0
  7  8  2  0
  8  9  1  0
  9 10  2  0
 10 11  1  0
 11 12  1  0
 12 13  1  0
 13 14  1  0
 14 15  1  0
 15 16  1  0
 16 17  2  0
 16 18  1  0
 18 19  1  0
 19 20  2  0
 20 21  1  0
 21 22  2  0
 22 23  1  0
 23 24  2  0
 15 25  1  0
 25 26  2  0
  2 27  1  0
 27 28  2  0
 28 29  1  0
 29 30  2  0
 30 31  1  0
 31 32  2  0
 32  2  1  0
 11  7  1  0
 25 12  1  0
 32 27  1  0
 24 19  1  0
M  END
>  <Title>  (167) 
idAAEMgen14

$$$$

     RDKit          2D

 16 16  0  0  0  0  0  0  0  0999 V2000
   12.7500   -6.4952    0.0000 C   0  0  0  0  0  0  0  0  0  0  0  0
   12.0000   -5.1962    0.0000 C   0  0  0  0  0  0  0  0  0  0  0  0
   10.5000   -5.1962    0.0000 C   0  0  0  0  0  0  0  0  0  0  0  0
    9.7500   -3.8971    0.0000 C   0  0  0  0  0  0  0  0  0  0  0  0
    8.2500   -3.8971    0.0000 C   0  0  0  0  0  0  0  0  0  0  0  0
    7.5000   -2.5981    0.0000 C   0  0  0  0  0  0  0  0  0  0  0  0
    6.0000   -2.5981    0.0000 C   0  0  0  0  0  0  0  0  0  0  0  0
    5.2500   -1.2990    0.0000 C   0  0  0  0  0  0  0  0  0  0  0  0
    3.7500   -1.2990    0.0000 C   0  0  0  0  0  0  0  0  0  0  0  0
    3.0000    0.0000    0.0000 C   0  0  0  0  0  0  0  0  0  0  0  0
    1.5000    0.0000    0.0000 C   0  0  0  0  0  0  0  0  0  0  0  0
    0.7500   -1.2990    0.0000 C   0  0  0  0  0  0  0  0  0  0  0  0
   -0.7500   -1.2990    0.0000 C   0  0  0  0  0  0  0  0  0  0  0  0
   -1.5000    0.0000    0.0000 C   0  0  0  0  0  0  0  0  0  0  0  0
   -0.7500    1.2990    0.0000 N   0  0  0  0  0  0  0  0  0  0  0  0
    0.7500    1.2990    0.0000 C   0  0  0  0  0  0  0  0  0  0  0  0
  1  2  1  0
  2  3  1  0
  3  4  1  0
  4  5  1  0
  5  6  1  0
  6  7  1  0
  7  8  1  0
  8  9  1  0
  9 10  1  0
 10 11  1  0
 11 12  2  0
 12 13  1  0
 13 14  2  0
 14 15  1  0
 15 16  2  0
 16 11  1  0
M  END
>  <Title>  (168) 
idAAENgen14

$$$$

     RDKit          2D

  9  9  0  0  0  0  0  0  0  0999 V2000
    7.2760   -0.0000    0.0000 C   0  0  0  0  0  0  0  0  0  0  0  0
    5.7760   -0.0000    0.0000 C   0  0  0  0  0  0  0  0  0  0  0  0
    4.2760   -0.0000    0.0000 C   0  0  0  0  0  0  0  0  0  0  0  0
    2.7760    0.0000    0.0000 C   0  0  0  0  0  0  0  0  0  0  0  0
    1.2760    0.0000    0.0000 C   0  0  0  0  0  0  0  0  0  0  0  0
    0.3943    1.2135    0.0000 C   0  0  0  0  0  0  0  0  0  0  0  0
   -1.0323    0.7500    0.0000 C   0  0  0  0  0  0  0  0  0  0  0  0
   -1.0323   -0.7500    0.0000 C   0  0  0  0  0  0  0  0  0  0  0  0
    0.3943   -1.2135    0.0000 C   0  0  0  0  0  0  0  0  0  0  0  0
  1  2  3  0
  2  3  1  0
  3  4  3  0
  4  5  1  0
  5  6  2  0
  6  7  1  0
  7  8  2  0
  8  9  1  0
  9  5  1  0
M  END
>  <Title>  (169) 
idAAEOgen14

$$$$

     RDKit          2D

 34 38  0  0  0  0  0  0  0  0999 V2000
   -3.1476   -2.1380    0.0000 C   0  0  0  0  0  0  0  0  0  0  0  0
   -1.6852   -2.4718    0.0000 C   0  0  0  0  0  0  0  0  0  0  0  0
   -1.3515   -3.9342    0.0000 C   0  0  0  0  0  0  0  0  0  0  0  0
   -0.0000   -4.5850    0.0000 O   0  0  0  0  0  0  0  0  0  0  0  0
    1.3515   -3.9342    0.0000 C   0  0  0  0  0  0  0  0  0  0  0  0
    1.6852   -2.4718    0.0000 C   0  0  0  0  0  0  0  0  0  0  0  0
    3.1476   -2.1380    0.0000 C   0  0  0  0  0  0  0  0  0  0  0  0
    3.5898   -0.7046    0.0000 O   0  0  0  0  0  0  0  0  0  0  0  0
    4.1679   -3.2376    0.0000 N   0  0  0  0  0  0  0  0  0  0  0  0
    5.6303   -2.9038    0.0000 C   0  0  0  0  0  0  0  0  0  0  0  0
    6.2198   -1.5245    0.0000 N   0  0  0  0  0  0  0  0  0  0  0  0
    7.7138   -1.6590    0.0000 N   0  0  0  0  0  0  0  0  0  0  0  0
    8.0476   -3.1214    0.0000 N   0  0  0  0  0  0  0  0  0  0  0  0
    6.7599   -3.8907    0.0000 N   0  0  0  0  0  0  0  0  0  0  0  0
    6.6254   -5.3847    0.0000 N   0  0  0  0  0  0  0  0  0  0  0  0
    5.4740   -6.3460    0.0000 C   0  0  0  0  0  0  0  0  0  0  0  0
    6.4353   -7.4975    0.0000 C   0  0  0  0  0  0  0  0  0  0  0  0
    6.3008   -8.9914    0.0000 C   0  0  0  0  0  0  0  0  0  0  0  0
    7.5274   -9.8548    0.0000 O   0  0  0  0  0  0  0  0  0  0  0  0
    4.9398   -9.6219    0.0000 N   0  0  0  0  0  0  0  0  0  0  0  0
    4.8053  -11.1159    0.0000 C   0  0  0  0  0  0  0  0  0  0  0  0
    3.4443  -11.7464    0.0000 N   0  0  0  0  0  0  0  0  0  0  0  0
    3.3098  -13.2404    0.0000 N   0  0  0  0  0  0  0  0  0  0  0  0
    4.5364  -14.1038    0.0000 N   0  0  0  0  0  0  0  0  0  0  0  0
    5.8974  -13.4733    0.0000 N   0  0  0  0  0  0  0  0  0  0  0  0
    6.0319  -11.9793    0.0000 N   0  0  0  0  0  0  0  0  0  0  0  0
    7.5867   -6.5361    0.0000 C   0  0  0  0  0  0  0  0  0  0  0  0
    9.0807   -6.6706    0.0000 O   0  0  0  0  0  0  0  0  0  0  0  0
    0.7500   -1.2990    0.0000 C   0  0  0  0  0  0  0  0  0  0  0  0
    1.5000    0.0000    0.0000 C   0  0  0  0  0  0  0  0  0  0  0  0
    0.7500    1.2990    0.0000 C   0  0  0  0  0  0  0  0  0  0  0  0
   -0.7500    1.2990    0.0000 C   0  0  0  0  0  0  0  0  0  0  0  0
   -1.5000    0.0000    0.0000 C   0  0  0  0  0  0  0  0  0  0  0  0
   -0.7500   -1.2990    0.0000 C   0  0  0  0  0  0  0  0  0  0  0  0
  1  2  1  0
  2  3  2  0
  3  4  1  0
  4  5  1  0
  5  6  2  0
  6  7  1  0
  7  8  2  0
  7  9  1  0
  9 10  1  0
 10 11  2  0
 11 12  1  0
 12 13  2  0
 13 14  1  0
 14 15  1  0
 15 16  1  0
 16 17  2  0
 17 18  1  0
 18 19  2  0
 18 20  1  0
 20 21  1  0
 21 22  2  0
 22 23  1  0
 23 24  2  0
 24 25  1  0
 25 26  2  0
 17 27  1  0
 27 28  2  0
  6 29  1  0
 29 30  2  0
 30 31  1  0
 31 32  2  0
 32 33  1  0
 33 34  2  0
 34  2  1  0
 14 10  1  0
 27 15  1  0
 34 29  1  0
 26 21  1  0
M  END
>  <Title>  (170) 
idAAEPgen14

$$$$

     RDKit          2D

 24 23  0  0  0  0  0  0  0  0999 V2000
    0.0000    0.0000    0.0000 C   0  0  0  0  0  0  0  0  0  0  0  0
    1.2990    0.7500    0.0000 C   0  0  0  0  0  0  0  0  0  0  0  0
    2.5981   -0.0000    0.0000 C   0  0  0  0  0  0  0  0  0  0  0  0
    3.8971    0.7500    0.0000 C   0  0  0  0  0  0  0  0  0  0  0  0
    5.1962   -0.0000    0.0000 C   0  0  0  0  0  0  0  0  0  0  0  0
    3.8971    2.2500    0.0000 N   0  0  0  0  0  0  0  0  0  0  0  0
    5.1962    3.0000    0.0000 C   0  0  0  0  0  0  0  0  0  0  0  0
    6.4952    2.2500    0.0000 O   0  0  0  0  0  0  0  0  0  0  0  0
    5.1962    4.5000    0.0000 N   0  0  0  0  0  0  0  0  0  0  0  0
    6.4952    5.2500    0.0000 C   0  0  0  0  0  0  0  0  0  0  0  0
    6.4952    6.7500    0.0000 C   0  0  0  0  0  0  0  0  0  0  0  0
    7.7942    7.5000    0.0000 C   0  0  0  0  0  0  0  0  0  0  0  0
    7.7942    9.0000    0.0000 N   0  0  0  0  0  0  0  0  0  0  0  0
    9.0933    9.7500    0.0000 N   0  0  0  0  0  0  0  0  0  0  0  0
    9.0933   11.2500    0.0000 C   0  0  0  0  0  0  0  0  0  0  0  0
    7.7942   12.0000    0.0000 O   0  0  0  0  0  0  0  0  0  0  0  0
   10.3923   12.0000    0.0000 C   0  0  0  0  0  0  0  0  0  0  0  0
   10.3923   13.5000    0.0000 C   0  0  0  0  0  0  0  0  0  0  0  0
    9.0933   14.2500    0.0000 O   0  0  0  0  0  0  0  0  0  0  0  0
   11.6913   14.2500    0.0000 C   0  0  0  0  0  0  0  0  0  0  0  0
   11.6913   15.7500    0.0000 C   0  0  0  0  0  0  0  0  0  0  0  0
   12.9904   16.5000    0.0000 C   0  0  0  0  0  0  0  0  0  0  0  0
   12.9904   18.0000    0.0000 C   0  0  0  0  0  0  0  0  0  0  0  0
   12.9904   19.5000    0.0000 N   0  0  0  0  0  0  0  0  0  0  0  0
  1  2  1  0
  2  3  1  0
  3  4  1  0
  4  5  1  0
  4  6  1  0
  6  7  1  0
  7  8  2  0
  7  9  1  0
  9 10  1  0
 10 11  1  0
 11 12  2  3
 12 13  1  0
 13 14  1  0
 14 15  1  0
 15 16  2  0
 15 17  1  0
 17 18  1  0
 18 19  1  0
 18 20  1  0
 20 21  1  0
 21 22  1  0
 22 23  1  0
 23 24  3  0
M  END
>  <Title>  (171) 
idAAEQgen14

$$$$

     RDKit          2D

 40 45  0  0  0  0  0  0  0  0999 V2000
   -1.3240   -6.3062    0.0000 C   0  0  0  0  0  0  0  0  0  0  0  0
   -0.7500   -4.9204    0.0000 C   0  0  0  0  0  0  0  0  0  0  0  0
    0.7500   -4.9204    0.0000 C   0  0  0  0  0  0  0  0  0  0  0  0
    1.8107   -3.8597    0.0000 C   0  0  0  0  0  0  0  0  0  0  0  0
    1.8107   -2.3597    0.0000 C   0  0  0  0  0  0  0  0  0  0  0  0
    3.1965   -1.7857    0.0000 C   0  0  0  0  0  0  0  0  0  0  0  0
    3.3923   -0.2985    0.0000 O   0  0  0  0  0  0  0  0  0  0  0  0
    4.3865   -2.6988    0.0000 N   0  0  0  0  0  0  0  0  0  0  0  0
    5.7723   -2.1248    0.0000 C   0  0  0  0  0  0  0  0  0  0  0  0
    6.1225   -0.6662    0.0000 N   0  0  0  0  0  0  0  0  0  0  0  0
    7.6179   -0.5485    0.0000 N   0  0  0  0  0  0  0  0  0  0  0  0
    8.1919   -1.9344    0.0000 N   0  0  0  0  0  0  0  0  0  0  0  0
    7.0513   -2.9085    0.0000 N   0  0  0  0  0  0  0  0  0  0  0  0
    7.1690   -4.4039    0.0000 N   0  0  0  0  0  0  0  0  0  0  0  0
    8.4479   -5.1877    0.0000 C   0  0  0  0  0  0  0  0  0  0  0  0
    8.0978   -6.6462    0.0000 C   0  0  0  0  0  0  0  0  0  0  0  0
    6.6024   -6.7639    0.0000 N   0  0  0  0  0  0  0  0  0  0  0  0
    5.8186   -8.0429    0.0000 C   0  0  0  0  0  0  0  0  0  0  0  0
    6.5344   -9.3611    0.0000 O   0  0  0  0  0  0  0  0  0  0  0  0
    4.3192   -8.0036    0.0000 N   0  0  0  0  0  0  0  0  0  0  0  0
    3.5354   -9.2826    0.0000 C   0  0  0  0  0  0  0  0  0  0  0  0
    2.0359   -9.2433    0.0000 N   0  0  0  0  0  0  0  0  0  0  0  0
    1.2522  -10.5223    0.0000 N   0  0  0  0  0  0  0  0  0  0  0  0
    1.9679  -11.8405    0.0000 N   0  0  0  0  0  0  0  0  0  0  0  0
    3.4674  -11.8797    0.0000 N   0  0  0  0  0  0  0  0  0  0  0  0
    4.2512  -10.6008    0.0000 N   0  0  0  0  0  0  0  0  0  0  0  0
    6.0284   -5.3781    0.0000 C   0  0  0  0  0  0  0  0  0  0  0  0
    4.5698   -5.0279    0.0000 O   0  0  0  0  0  0  0  0  0  0  0  0
    0.7500   -1.2990    0.0000 C   0  0  0  0  0  0  0  0  0  0  0  0
    1.5000    0.0000    0.0000 C   0  0  0  0  0  0  0  0  0  0  0  0
    0.7500    1.2990    0.0000 C   0  0  0  0  0  0  0  0  0  0  0  0
   -0.7500    1.2990    0.0000 C   0  0  0  0  0  0  0  0  0  0  0  0
   -1.5000    0.0000    0.0000 C   0  0  0  0  0  0  0  0  0  0  0  0
   -0.7500   -1.2990    0.0000 C   0  0  0  0  0  0  0  0  0  0  0  0
   -1.8107   -2.3597    0.0000 C   0  0  0  0  0  0  0  0  0  0  0  0
   -3.1097   -1.6097    0.0000 C   0  0  0  0  0  0  0  0  0  0  0  0
   -4.4087   -2.3597    0.0000 C   0  0  0  0  0  0  0  0  0  0  0  0
   -4.4087   -3.8597    0.0000 C   0  0  0  0  0  0  0  0  0  0  0  0
   -3.1097   -4.6097    0.0000 C   0  0  0  0  0  0  0  0  0  0  0  0
   -1.8107   -3.8597    0.0000 C   0  0  0  0  0  0  0  0  0  0  0  0
  1  2  1  0
  2  3  2  0
  3  4  1  0
  4  5  2  0
  5  6  1  0
  6  7  2  0
  6  8  1  0
  8  9  1  0
  9 10  2  0
 10 11  1  0
 11 12  2  0
 12 13  1  0
 13 14  1  0
 14 15  1  0
 15 16  1  0
 16 17  1  0
 17 18  1  0
 18 19  2  0
 18 20  1  0
 20 21  1  0
 21 22  2  0
 22 23  1  0
 23 24  2  0
 24 25  1  0
 25 26  2  0
 17 27  1  0
 27 28  2  0
  5 29  1  0
 29 30  2  0
 30 31  1  0
 31 32  2  0
 32 33  1  0
 33 34  2  0
 34 35  1  0
 35 36  2  0
 36 37  1  0
 37 38  2  0
 38 39  1  0
 39 40  2  0
 40  2  1  0
 13  9  1  0
 27 14  1  0
 34 29  1  0
 40 35  1  0
 26 21  1  0
M  END
>  <Title>  (172) 
idAAERgen14

$$$$

     RDKit          2D

 79 80  0  0  0  0  0  0  0  0999 V2000
   -2.2116   -1.0660    0.0000 C   0  0  0  0  0  0  0  0  0  0  0  0
   -2.4927    0.4075    0.0000 C   0  0  0  0  0  0  0  0  0  0  0  0
   -3.9766    0.1883    0.0000 C   0  0  0  0  0  0  0  0  0  0  0  0
   -5.4736    0.0942    0.0000 C   0  0  0  0  0  0  0  0  0  0  0  0
   -6.9733    0.1256    0.0000 C   0  0  0  0  0  0  0  0  0  0  0  0
   -8.4651    0.2824    0.0000 C   0  0  0  0  0  0  0  0  0  0  0  0
   -9.9385    0.5634    0.0000 C   0  0  0  0  0  0  0  0  0  0  0  0
  -11.3832    0.9668    0.0000 C   0  0  0  0  0  0  0  0  0  0  0  0
  -12.7892    1.4897    0.0000 C   0  0  0  0  0  0  0  0  0  0  0  0
  -14.1464    2.1283    0.0000 C   0  0  0  0  0  0  0  0  0  0  0  0
  -15.4454    2.8783    0.0000 C   0  0  0  0  0  0  0  0  0  0  0  0
  -16.6772    3.7344    0.0000 C   0  0  0  0  0  0  0  0  0  0  0  0
  -17.8329    4.6906    0.0000 C   0  0  0  0  0  0  0  0  0  0  0  0
  -18.9046    5.7400    0.0000 C   0  0  0  0  0  0  0  0  0  0  0  0
  -19.8848    6.8755    0.0000 C   0  0  0  0  0  0  0  0  0  0  0  0
  -20.7664    8.0891    0.0000 C   0  0  0  0  0  0  0  0  0  0  0  0
  -21.5435    9.3721    0.0000 C   0  0  0  0  0  0  0  0  0  0  0  0
  -22.2104   10.7157    0.0000 C   0  0  0  0  0  0  0  0  0  0  0  0
  -22.7626   12.1103    0.0000 C   0  0  0  0  0  0  0  0  0  0  0  0
  -23.1962   13.5463    0.0000 C   0  0  0  0  0  0  0  0  0  0  0  0
  -23.5080   15.0135    0.0000 C   0  0  0  0  0  0  0  0  0  0  0  0
  -23.6960   16.5017    0.0000 C   0  0  0  0  0  0  0  0  0  0  0  0
  -23.7589   18.0004    0.0000 C   0  0  0  0  0  0  0  0  0  0  0  0
  -23.6960   19.4991    0.0000 C   0  0  0  0  0  0  0  0  0  0  0  0
  -23.5080   20.9873    0.0000 C   0  0  0  0  0  0  0  0  0  0  0  0
  -23.1962   22.4545    0.0000 C   0  0  0  0  0  0  0  0  0  0  0  0
  -22.7626   23.8905    0.0000 C   0  0  0  0  0  0  0  0  0  0  0  0
  -22.2104   25.2851    0.0000 C   0  0  0  0  0  0  0  0  0  0  0  0
  -21.5435   26.6287    0.0000 C   0  0  0  0  0  0  0  0  0  0  0  0
  -20.7664   27.9117    0.0000 C   0  0  0  0  0  0  0  0  0  0  0  0
  -19.8848   29.1253    0.0000 C   0  0  0  0  0  0  0  0  0  0  0  0
  -18.9046   30.2608    0.0000 C   0  0  0  0  0  0  0  0  0  0  0  0
  -17.8329   31.3103    0.0000 C   0  0  0  0  0  0  0  0  0  0  0  0
  -16.6772   32.2664    0.0000 C   0  0  0  0  0  0  0  0  0  0  0  0
  -15.4454   33.1225    0.0000 C   0  0  0  0  0  0  0  0  0  0  0  0
  -14.1464   33.8725    0.0000 C   0  0  0  0  0  0  0  0  0  0  0  0
  -12.7892   34.5111    0.0000 C   0  0  0  0  0  0  0  0  0  0  0  0
  -11.3832   35.0340    0.0000 C   0  0  0  0  0  0  0  0  0  0  0  0
   -9.9385   35.4374    0.0000 C   0  0  0  0  0  0  0  0  0  0  0  0
   -8.4651   35.7184    0.0000 C   0  0  0  0  0  0  0  0  0  0  0  0
   -6.9733   35.8752    0.0000 C   0  0  0  0  0  0  0  0  0  0  0  0
   -5.4736   35.9066    0.0000 C   0  0  0  0  0  0  0  0  0  0  0  0
   -3.9766   35.8125    0.0000 C   0  0  0  0  0  0  0  0  0  0  0  0
   -2.4927   35.5933    0.0000 C   0  0  0  0  0  0  0  0  0  0  0  0
   -1.0323   35.2508    0.0000 C   0  0  0  0  0  0  0  0  0  0  0  0
    0.3943   34.7873    0.0000 C   0  0  0  0  0  0  0  0  0  0  0  0
    1.7771   34.2060    0.0000 C   0  0  0  0  0  0  0  0  0  0  0  0
    3.1064   33.5111    0.0000 C   0  0  0  0  0  0  0  0  0  0  0  0
    4.3729   32.7073    0.0000 C   0  0  0  0  0  0  0  0  0  0  0  0
    5.5677   31.8004    0.0000 C   0  0  0  0  0  0  0  0  0  0  0  0
    6.6824   30.7967    0.0000 C   0  0  0  0  0  0  0  0  0  0  0  0
    7.7092   29.7033    0.0000 C   0  0  0  0  0  0  0  0  0  0  0  0
    8.6409   28.5277    0.0000 C   0  0  0  0  0  0  0  0  0  0  0  0
    9.4710   27.2784    0.0000 C   0  0  0  0  0  0  0  0  0  0  0  0
   10.1937   25.9639    0.0000 C   0  0  0  0  0  0  0  0  0  0  0  0
   10.8038   24.5936    0.0000 C   0  0  0  0  0  0  0  0  0  0  0  0
   11.2971   23.1770    0.0000 C   0  0  0  0  0  0  0  0  0  0  0  0
   11.6701   21.7241    0.0000 C   0  0  0  0  0  0  0  0  0  0  0  0
   11.9203   20.2451    0.0000 C   0  0  0  0  0  0  0  0  0  0  0  0
   12.0458   18.7504    0.0000 C   0  0  0  0  0  0  0  0  0  0  0  0
   12.0458   17.2504    0.0000 C   0  0  0  0  0  0  0  0  0  0  0  0
   11.9203   15.7557    0.0000 C   0  0  0  0  0  0  0  0  0  0  0  0
   11.6701   14.2767    0.0000 C   0  0  0  0  0  0  0  0  0  0  0  0
   11.2971   12.8238    0.0000 C   0  0  0  0  0  0  0  0  0  0  0  0
   10.8038   11.4072    0.0000 C   0  0  0  0  0  0  0  0  0  0  0  0
   10.1937   10.0369    0.0000 C   0  0  0  0  0  0  0  0  0  0  0  0
    9.4710    8.7225    0.0000 C   0  0  0  0  0  0  0  0  0  0  0  0
    8.6409    7.4731    0.0000 C   0  0  0  0  0  0  0  0  0  0  0  0
    7.7092    6.2975    0.0000 C   0  0  0  0  0  0  0  0  0  0  0  0
    6.6824    5.2041    0.0000 C   0  0  0  0  0  0  0  0  0  0  0  0
    5.5677    4.2004    0.0000 C   0  0  0  0  0  0  0  0  0  0  0  0
    4.3729    3.2935    0.0000 C   0  0  0  0  0  0  0  0  0  0  0  0
    3.1064    2.4897    0.0000 C   0  0  0  0  0  0  0  0  0  0  0  0
    1.7771    1.7948    0.0000 C   0  0  0  0  0  0  0  0  0  0  0  0
    0.3943    1.2135    0.0000 C   0  0  0  0  0  0  0  0  0  0  0  0
    1.2760    0.0000    0.0000 C   0  0  0  0  0  0  0  0  0  0  0  0
    0.3943   -1.2135    0.0000 C   0  0  0  0  0  0  0  0  0  0  0  0
   -1.0323   -0.7500    0.0000 C   0  0  0  0  0  0  0  0  0  0  0  0
   -1.0323    0.7500    0.0000 C   0  0  0  0  0  0  0  0  0  0  0  0
  1  2  1  0
  2  3  1  0
  3  4  1  0
  4  5  1  0
  5  6  1  0
  6  7  1  0
  7  8  1  0
  8  9  1  0
  9 10  1  0
 10 11  1  0
 11 12  1  0
 12 13  1  0
 13 14  1  0
 14 15  1  0
 15 16  1  0
 16 17  1  0
 17 18  1  0
 18 19  1  0
 19 20  1  0
 20 21  1  0
 21 22  1  0
 22 23  1  0
 23 24  1  0
 24 25  1  0
 25 26  1  0
 26 27  1  0
 27 28  1  0
 28 29  1  0
 29 30  1  0
 30 31  1  0
 31 32  1  0
 32 33  1  0
 33 34  1  0
 34 35  1  0
 35 36  1  0
 36 37  1  0
 37 38  1  0
 38 39  1  0
 39 40  1  0
 40 41  1  0
 41 42  1  0
 42 43  1  0
 43 44  1  0
 44 45  1  0
 45 46  1  0
 46 47  1  0
 47 48  1  0
 48 49  2  0
 49 50  1  0
 50 51  2  0
 51 52  1  0
 52 53  2  0
 53 54  1  0
 54 55  2  0
 55 56  1  0
 56 57  2  0
 57 58  1  0
 58 59  2  0
 59 60  1  0
 60 61  2  0
 61 62  1  0
 62 63  2  0
 63 64  1  0
 64 65  2  0
 65 66  1  0
 66 67  2  0
 67 68  1  0
 68 69  2  0
 69 70  1  0
 70 71  2  0
 71 72  1  0
 72 73  2  0
 73 74  1  0
 74 75  2  0
 75 76  1  0
 76 77  2  0
 77 78  1  0
 78 79  2  0
 79  2  1  0
 79 75  1  0
M  END
>  <Title>  (173) 
idAAESgen14

$$$$

     RDKit          2D

 33 37  0  0  0  0  0  0  0  0999 V2000
   -2.6401   -3.1891    0.0000 C   0  0  0  0  0  0  0  0  0  0  0  0
   -1.2135   -2.7256    0.0000 C   0  0  0  0  0  0  0  0  0  0  0  0
   -0.0000   -3.6073    0.0000 N   0  0  0  0  0  0  0  0  0  0  0  0
    1.2135   -2.7256    0.0000 C   0  0  0  0  0  0  0  0  0  0  0  0
    2.6401   -3.1891    0.0000 C   0  0  0  0  0  0  0  0  0  0  0  0
    3.7548   -2.1855    0.0000 O   0  0  0  0  0  0  0  0  0  0  0  0
    2.9520   -4.6564    0.0000 N   0  0  0  0  0  0  0  0  0  0  0  0
    4.3786   -5.1199    0.0000 C   0  0  0  0  0  0  0  0  0  0  0  0
    5.5921   -4.2382    0.0000 N   0  0  0  0  0  0  0  0  0  0  0  0
    6.8056   -5.1199    0.0000 N   0  0  0  0  0  0  0  0  0  0  0  0
    6.3421   -6.5465    0.0000 N   0  0  0  0  0  0  0  0  0  0  0  0
    4.8421   -6.5465    0.0000 N   0  0  0  0  0  0  0  0  0  0  0  0
    3.9604   -7.7600    0.0000 C   0  0  0  0  0  0  0  0  0  0  0  0
    4.4239   -9.1866    0.0000 C   0  0  0  0  0  0  0  0  0  0  0  0
    3.2104  -10.0683    0.0000 C   0  0  0  0  0  0  0  0  0  0  0  0
    1.9969   -9.1866    0.0000 C   0  0  0  0  0  0  0  0  0  0  0  0
    0.5703   -9.6501    0.0000 C   0  0  0  0  0  0  0  0  0  0  0  0
    0.2584  -11.1173    0.0000 O   0  0  0  0  0  0  0  0  0  0  0  0
   -0.5444   -8.6464    0.0000 N   0  0  0  0  0  0  0  0  0  0  0  0
   -1.9710   -9.1099    0.0000 C   0  0  0  0  0  0  0  0  0  0  0  0
   -3.0857   -8.1062    0.0000 N   0  0  0  0  0  0  0  0  0  0  0  0
   -4.5123   -8.5698    0.0000 N   0  0  0  0  0  0  0  0  0  0  0  0
   -4.8242  -10.0370    0.0000 N   0  0  0  0  0  0  0  0  0  0  0  0
   -3.7095  -11.0407    0.0000 N   0  0  0  0  0  0  0  0  0  0  0  0
   -2.2829  -10.5772    0.0000 N   0  0  0  0  0  0  0  0  0  0  0  0
    2.4604   -7.7600    0.0000 C   0  0  0  0  0  0  0  0  0  0  0  0
    1.5787   -6.5465    0.0000 O   0  0  0  0  0  0  0  0  0  0  0  0
    0.7500   -1.2990    0.0000 C   0  0  0  0  0  0  0  0  0  0  0  0
    1.5000    0.0000    0.0000 C   0  0  0  0  0  0  0  0  0  0  0  0
    0.7500    1.2990    0.0000 C   0  0  0  0  0  0  0  0  0  0  0  0
   -0.7500    1.2990    0.0000 C   0  0  0  0  0  0  0  0  0  0  0  0
   -1.5000    0.0000    0.0000 C   0  0  0  0  0  0  0  0  0  0  0  0
   -0.7500   -1.2990    0.0000 C   0  0  0  0  0  0  0  0  0  0  0  0
  1  2  1  0
  2  3  2  0
  3  4  1  0
  4  5  1  0
  5  6  2  0
  5  7  1  0
  7  8  1  0
  8  9  2  0
  9 10  1  0
 10 11  2  0
 11 12  1  0
 12 13  1  0
 13 14  2  0
 14 15  1  0
 15 16  2  0
 16 17  1  0
 17 18  2  0
 17 19  1  0
 19 20  1  0
 20 21  2  0
 21 22  1  0
 22 23  2  0
 23 24  1  0
 24 25  2  0
 16 26  1  0
 26 27  2  0
  4 28  1  0
 28 29  2  0
 29 30  1  0
 30 31  2  0
 31 32  1  0
 32 33  2  0
 33  2  1  0
 12  8  1  0
 26 13  1  0
 33 28  1  0
 25 20  1  0
M  END
>  <Title>  (174) 
idAAETgen14

$$$$

     RDKit          2D

  7  6  0  0  0  0  0  0  0  0999 V2000
    0.0000    0.0000    0.0000 C   0  0  0  0  0  0  0  0  0  0  0  0
    1.2990    0.7500    0.0000 C   0  0  0  0  0  0  0  0  0  0  0  0
    2.5981   -0.0000    0.0000 C   0  0  0  0  0  0  0  0  0  0  0  0
    3.8971    0.7500    0.0000 C   0  0  0  0  0  0  0  0  0  0  0  0
    5.1962   -0.0000    0.0000 C   0  0  0  0  0  0  0  0  0  0  0  0
    6.4952    0.7500    0.0000 C   0  0  0  0  0  0  0  0  0  0  0  0
    5.1962   -1.5000    0.0000 N   0  0  0  0  0  0  0  0  0  0  0  0
  1  2  2  0
  2  3  1  0
  3  4  1  0
  4  5  1  0
  5  6  1  0
  5  7  1  0
M  END
>  <Title>  (175) 
idAAEUgen14

$$$$

     RDKit          2D

 15 15  0  0  0  0  0  0  0  0999 V2000
   10.5000   -5.1962    0.0000 C   0  0  0  0  0  0  0  0  0  0  0  0
    9.7500   -3.8971    0.0000 C   0  0  0  0  0  0  0  0  0  0  0  0
    8.2500   -3.8971    0.0000 C   0  0  0  0  0  0  0  0  0  0  0  0
    7.5000   -2.5981    0.0000 C   0  0  0  0  0  0  0  0  0  0  0  0
    6.0000   -2.5981    0.0000 N   0  0  0  0  0  0  0  0  0  0  0  0
    5.2500   -1.2990    0.0000 C   0  0  0  0  0  0  0  0  0  0  0  0
    6.0000    0.0000    0.0000 O   0  0  0  0  0  0  0  0  0  0  0  0
    3.7500   -1.2990    0.0000 C   0  0  0  0  0  0  0  0  0  0  0  0
    3.0000    0.0000    0.0000 C   0  0  0  0  0  0  0  0  0  0  0  0
    1.5000    0.0000    0.0000 C   0  0  0  0  0  0  0  0  0  0  0  0
    0.7500   -1.2990    0.0000 C   0  0  0  0  0  0  0  0  0  0  0  0
   -0.7500   -1.2990    0.0000 C   0  0  0  0  0  0  0  0  0  0  0  0
   -1.5000    0.0000    0.0000 C   0  0  0  0  0  0  0  0  0  0  0  0
   -0.7500    1.2990    0.0000 N   0  0  0  0  0  0  0  0  0  0  0  0
    0.7500    1.2990    0.0000 C   0  0  0  0  0  0  0  0  0  0  0  0
  1  2  1  0
  2  3  1  0
  3  4  1  0
  4  5  1  0
  5  6  1  0
  6  7  2  0
  6  8  1  0
  8  9  1  0
  9 10  1  0
 10 11  2  0
 11 12  1  0
 12 13  2  0
 13 14  1  0
 14 15  2  0
 15 10  1  0
M  END
>  <Title>  (176) 
idAAEVgen14

$$$$

     RDKit          2D

  9  8  0  0  0  0  0  0  0  0999 V2000
    0.0000    0.0000    0.0000 C   0  0  0  0  0  0  0  0  0  0  0  0
   -0.0000   -1.5000    0.0000 C   0  0  0  0  0  0  0  0  0  0  0  0
   -0.0000   -3.0000    0.0000 C   0  0  0  0  0  0  0  0  0  0  0  0
   -0.0000   -4.5000    0.0000 C   0  0  0  0  0  0  0  0  0  0  0  0
   -0.0000   -6.0000    0.0000 C   0  0  0  0  0  0  0  0  0  0  0  0
   -0.0000   -7.5000    0.0000 C   0  0  0  0  0  0  0  0  0  0  0  0
   -0.0000   -9.0000    0.0000 C   0  0  0  0  0  0  0  0  0  0  0  0
    1.2990   -9.7500    0.0000 C   0  0  0  0  0  0  0  0  0  0  0  0
   -1.2990   -9.7500    0.0000 N   0  0  0  0  0  0  0  0  0  0  0  0
  1  2  3  0
  2  3  1  0
  3  4  3  0
  4  5  1  0
  5  6  3  0
  6  7  1  0
  7  8  1  0
  7  9  1  0
M  END
>  <Title>  (177) 
idAAEWgen14

$$$$

     RDKit          2D

  9  9  0  0  0  0  0  0  0  0999 V2000
    5.0260   -1.2990    0.0000 C   0  0  0  0  0  0  0  0  0  0  0  0
    3.5260   -1.2990    0.0000 C   0  0  0  0  0  0  0  0  0  0  0  0
    2.7760   -2.5981    0.0000 O   0  0  0  0  0  0  0  0  0  0  0  0
    2.7760    0.0000    0.0000 N   0  0  0  0  0  0  0  0  0  0  0  0
    1.2760    0.0000    0.0000 N   0  0  0  0  0  0  0  0  0  0  0  0
    0.3943    1.2135    0.0000 C   0  0  0  0  0  0  0  0  0  0  0  0
   -1.0323    0.7500    0.0000 C   0  0  0  0  0  0  0  0  0  0  0  0
   -1.0323   -0.7500    0.0000 C   0  0  0  0  0  0  0  0  0  0  0  0
    0.3943   -1.2135    0.0000 C   0  0  0  0  0  0  0  0  0  0  0  0
  1  2  1  0
  2  3  2  0
  2  4  1  0
  4  5  1  0
  5  6  1  0
  6  7  2  0
  7  8  1  0
  8  9  2  0
  9  5  1  0
M  END
>  <Title>  (178) 
idAAEXgen14

$$$$

     RDKit          2D

 39 43  0  0  0  0  0  0  0  0999 V2000
   -1.8941   -3.6525    0.0000 C   0  0  0  0  0  0  0  0  0  0  0  0
   -0.4153   -3.4012    0.0000 C   0  0  0  0  0  0  0  0  0  0  0  0
    0.4528   -4.6246    0.0000 C   0  0  0  0  0  0  0  0  0  0  0  0
    1.9504   -4.7087    0.0000 C   0  0  0  0  0  0  0  0  0  0  0  0
    2.9499   -3.5902    0.0000 C   0  0  0  0  0  0  0  0  0  0  0  0
    2.6987   -2.1114    0.0000 C   0  0  0  0  0  0  0  0  0  0  0  0
    3.9220   -1.2434    0.0000 C   0  0  0  0  0  0  0  0  0  0  0  0
    3.7820    0.2501    0.0000 O   0  0  0  0  0  0  0  0  0  0  0  0
    5.2854   -1.8688    0.0000 N   0  0  0  0  0  0  0  0  0  0  0  0
    6.5087   -1.0008    0.0000 C   0  0  0  0  0  0  0  0  0  0  0  0
    6.5256    0.4991    0.0000 N   0  0  0  0  0  0  0  0  0  0  0  0
    7.9572    0.9466    0.0000 N   0  0  0  0  0  0  0  0  0  0  0  0
    8.8253   -0.2768    0.0000 N   0  0  0  0  0  0  0  0  0  0  0  0
    7.9300   -1.4803    0.0000 N   0  0  0  0  0  0  0  0  0  0  0  0
    8.3775   -2.9120    0.0000 C   0  0  0  0  0  0  0  0  0  0  0  0
    9.7988   -3.3915    0.0000 C   0  0  0  0  0  0  0  0  0  0  0  0
    9.7820   -4.8914    0.0000 C   0  0  0  0  0  0  0  0  0  0  0  0
    8.3503   -5.3389    0.0000 C   0  0  0  0  0  0  0  0  0  0  0  0
    7.8708   -6.7602    0.0000 C   0  0  0  0  0  0  0  0  0  0  0  0
    8.8619   -7.8861    0.0000 O   0  0  0  0  0  0  0  0  0  0  0  0
    6.4001   -7.0556    0.0000 N   0  0  0  0  0  0  0  0  0  0  0  0
    5.9206   -8.4769    0.0000 C   0  0  0  0  0  0  0  0  0  0  0  0
    4.4500   -8.7723    0.0000 N   0  0  0  0  0  0  0  0  0  0  0  0
    3.9705  -10.1936    0.0000 N   0  0  0  0  0  0  0  0  0  0  0  0
    4.9616  -11.3195    0.0000 N   0  0  0  0  0  0  0  0  0  0  0  0
    6.4323  -11.0241    0.0000 N   0  0  0  0  0  0  0  0  0  0  0  0
    6.9118   -9.6028    0.0000 N   0  0  0  0  0  0  0  0  0  0  0  0
    7.4823   -4.1156    0.0000 C   0  0  0  0  0  0  0  0  0  0  0  0
    5.9824   -4.0988    0.0000 O   0  0  0  0  0  0  0  0  0  0  0  0
    1.3858   -1.3858    0.0000 C   0  0  0  0  0  0  0  0  0  0  0  0
    1.9598    0.0000    0.0000 C   0  0  0  0  0  0  0  0  0  0  0  0
    1.3858    1.3858    0.0000 C   0  0  0  0  0  0  0  0  0  0  0  0
    0.0000    1.9598    0.0000 C   0  0  0  0  0  0  0  0  0  0  0  0
    0.0000    3.4598    0.0000 O   0  0  0  0  0  0  0  0  0  0  0  0
   -1.3858    1.3858    0.0000 C   0  0  0  0  0  0  0  0  0  0  0  0
   -1.9598    0.0000    0.0000 C   0  0  0  0  0  0  0  0  0  0  0  0
   -3.4598    0.0000    0.0000 O   0  0  0  0  0  0  0  0  0  0  0  0
   -1.3858   -1.3858    0.0000 C   0  0  0  0  0  0  0  0  0  0  0  0
   -0.0000   -1.9598    0.0000 C   0  0  0  0  0  0  0  0  0  0  0  0
  1  2  1  0
  2  3  1  0
  3  4  1  0
  4  5  1  0
  5  6  1  0
  6  7  1  0
  7  8  2  0
  7  9  1  0
  9 10  1  0
 10 11  2  0
 11 12  1  0
 12 13  2  0
 13 14  1  0
 14 15  1  0
 15 16  2  0
 16 17  1  0
 17 18  2  0
 18 19  1  0
 19 20  2  0
 19 21  1  0
 21 22  1  0
 22 23  2  0
 23 24  1  0
 24 25  2  0
 25 26  1  0
 26 27  2  0
 18 28  1  0
 28 29  2  0
  6 30  1  0
 30 31  2  0
 31 32  1  0
 32 33  2  0
 33 34  1  0
 33 35  1  0
 35 36  2  0
 36 37  1  0
 36 38  1  0
 38 39  2  0
 39  2  1  0
 14 10  1  0
 28 15  1  0
 39 30  1  0
 27 22  1  0
M  END
>  <Title>  (179) 
idAAEYgen14

$$$$

     RDKit          2D

 16 16  0  0  0  0  0  0  0  0999 V2000
   10.5000   -5.1962    0.0000 C   0  0  0  0  0  0  0  0  0  0  0  0
    9.7500   -3.8971    0.0000 C   0  0  0  0  0  0  0  0  0  0  0  0
   10.5000   -2.5981    0.0000 C   0  0  0  0  0  0  0  0  0  0  0  0
    8.2500   -3.8971    0.0000 C   0  0  0  0  0  0  0  0  0  0  0  0
    7.5000   -2.5981    0.0000 C   0  0  0  0  0  0  0  0  0  0  0  0
    6.0000   -2.5981    0.0000 N   0  0  0  0  0  0  0  0  0  0  0  0
    5.2500   -1.2990    0.0000 C   0  0  0  0  0  0  0  0  0  0  0  0
    6.0000    0.0000    0.0000 O   0  0  0  0  0  0  0  0  0  0  0  0
    3.7500   -1.2990    0.0000 N   0  0  0  0  0  0  0  0  0  0  0  0
    3.0000    0.0000    0.0000 C   0  0  0  0  0  0  0  0  0  0  0  0
    1.5000    0.0000    0.0000 C   0  0  0  0  0  0  0  0  0  0  0  0
    0.7500   -1.2990    0.0000 C   0  0  0  0  0  0  0  0  0  0  0  0
   -0.7500   -1.2990    0.0000 C   0  0  0  0  0  0  0  0  0  0  0  0
   -1.5000    0.0000    0.0000 C   0  0  0  0  0  0  0  0  0  0  0  0
   -0.7500    1.2990    0.0000 N   0  0  0  0  0  0  0  0  0  0  0  0
    0.7500    1.2990    0.0000 C   0  0  0  0  0  0  0  0  0  0  0  0
  1  2  1  0
  2  3  1  0
  2  4  1  0
  4  5  1  0
  5  6  1  0
  6  7  1  0
  7  8  2  0
  7  9  1  0
  9 10  1  0
 10 11  1  0
 11 12  2  0
 12 13  1  0
 13 14  2  0
 14 15  1  0
 15 16  2  0
 16 11  1  0
M  END
>  <Title>  (180) 
idAAEZgen14

$$$$

     RDKit          2D

 43 48  0  0  0  0  0  0  0  0999 V2000
   -3.7500   -1.2990    0.0000 O   0  0  0  0  0  0  0  0  0  0  0  0
   -3.0000   -2.5981    0.0000 C   0  0  0  0  0  0  0  0  0  0  0  0
   -3.7500   -3.8971    0.0000 N   0  0  0  0  0  0  0  0  0  0  0  0
   -5.2500   -3.8971    0.0000 C   0  0  0  0  0  0  0  0  0  0  0  0
   -6.1317   -2.6836    0.0000 N   0  0  0  0  0  0  0  0  0  0  0  0
   -7.5583   -3.1471    0.0000 N   0  0  0  0  0  0  0  0  0  0  0  0
   -7.5583   -4.6471    0.0000 N   0  0  0  0  0  0  0  0  0  0  0  0
   -6.1317   -5.1106    0.0000 N   0  0  0  0  0  0  0  0  0  0  0  0
   -5.6682   -6.5372    0.0000 N   0  0  0  0  0  0  0  0  0  0  0  0
   -4.2416   -7.0008    0.0000 C   0  0  0  0  0  0  0  0  0  0  0  0
   -4.2416   -8.5008    0.0000 C   0  0  0  0  0  0  0  0  0  0  0  0
   -5.6682   -8.9643    0.0000 N   0  0  0  0  0  0  0  0  0  0  0  0
   -6.1317  -10.3909    0.0000 C   0  0  0  0  0  0  0  0  0  0  0  0
   -7.5989  -10.7027    0.0000 O   0  0  0  0  0  0  0  0  0  0  0  0
   -5.1280  -11.5056    0.0000 N   0  0  0  0  0  0  0  0  0  0  0  0
   -5.5915  -12.9322    0.0000 C   0  0  0  0  0  0  0  0  0  0  0  0
   -7.0587  -13.2440    0.0000 N   0  0  0  0  0  0  0  0  0  0  0  0
   -7.5223  -14.6706    0.0000 N   0  0  0  0  0  0  0  0  0  0  0  0
   -6.5186  -15.7853    0.0000 N   0  0  0  0  0  0  0  0  0  0  0  0
   -5.0513  -15.4735    0.0000 N   0  0  0  0  0  0  0  0  0  0  0  0
   -4.5878  -14.0469    0.0000 N   0  0  0  0  0  0  0  0  0  0  0  0
   -6.5498   -7.7508    0.0000 C   0  0  0  0  0  0  0  0  0  0  0  0
   -8.0498   -7.7508    0.0000 O   0  0  0  0  0  0  0  0  0  0  0  0
   -1.5000   -2.5981    0.0000 C   0  0  0  0  0  0  0  0  0  0  0  0
   -0.7500   -3.8971    0.0000 C   0  0  0  0  0  0  0  0  0  0  0  0
    0.7500   -3.8971    0.0000 C   0  0  0  0  0  0  0  0  0  0  0  0
    1.5000   -2.5981    0.0000 C   0  0  0  0  0  0  0  0  0  0  0  0
    3.0000   -2.5981    0.0000 C   0  0  0  0  0  0  0  0  0  0  0  0
    3.7500   -3.8971    0.0000 N   0  0  0  0  0  0  0  0  0  0  0  0
    5.2500   -3.8971    0.0000 C   0  0  0  0  0  0  0  0  0  0  0  0
    6.0000   -2.5981    0.0000 O   0  0  0  0  0  0  0  0  0  0  0  0
    6.0000   -5.1962    0.0000 C   0  0  0  0  0  0  0  0  0  0  0  0
    7.5000   -5.1962    0.0000 C   0  0  0  0  0  0  0  0  0  0  0  0
    8.3817   -3.9826    0.0000 C   0  0  0  0  0  0  0  0  0  0  0  0
    9.8083   -4.4462    0.0000 C   0  0  0  0  0  0  0  0  0  0  0  0
    9.8083   -5.9462    0.0000 C   0  0  0  0  0  0  0  0  0  0  0  0
    8.3817   -6.4097    0.0000 C   0  0  0  0  0  0  0  0  0  0  0  0
    0.7500   -1.2990    0.0000 C   0  0  0  0  0  0  0  0  0  0  0  0
    1.5000    0.0000    0.0000 C   0  0  0  0  0  0  0  0  0  0  0  0
    0.7500    1.2990    0.0000 C   0  0  0  0  0  0  0  0  0  0  0  0
   -0.7500    1.2990    0.0000 C   0  0  0  0  0  0  0  0  0  0  0  0
   -1.5000    0.0000    0.0000 C   0  0  0  0  0  0  0  0  0  0  0  0
   -0.7500   -1.2990    0.0000 C   0  0  0  0  0  0  0  0  0  0  0  0
  1  2  2  0
  2  3  1  0
  3  4  1  0
  4  5  2  0
  5  6  1  0
  6  7  2  0
  7  8  1  0
  8  9  1  0
  9 10  1  0
 10 11  1  0
 11 12  1  0
 12 13  1  0
 13 14  2  0
 13 15  1  0
 15 16  1  0
 16 17  2  0
 17 18  1  0
 18 19  2  0
 19 20  1  0
 20 21  2  0
 12 22  1  0
 22 23  2  0
  2 24  1  0
 24 25  2  0
 25 26  1  0
 26 27  2  0
 27 28  1  0
 28 29  1  0
 29 30  1  0
 30 31  1  0
 30 32  1  0
 32 33  1  0
 33 34  2  0
 34 35  1  0
 35 36  1  0
 36 37  2  0
 27 38  1  0
 38 39  2  0
 39 40  1  0
 40 41  2  0
 41 42  1  0
 42 43  2  0
  8  4  1  0
 22  9  1  0
 43 24  1  0
 21 16  1  0
 37 33  1  0
 43 38  1  0
M  END
>  <Title>  (181) 
idAAFAgen14

$$$$

     RDKit          2D

  6  5  0  0  0  0  0  0  0  0999 V2000
    0.0000    0.0000    0.0000 C   0  0  0  0  0  0  0  0  0  0  0  0
    1.2990    0.7500    0.0000 C   0  0  0  0  0  0  0  0  0  0  0  0
    2.5981   -0.0000    0.0000 C   0  0  0  0  0  0  0  0  0  0  0  0
    3.8971    0.7500    0.0000 C   0  0  0  0  0  0  0  0  0  0  0  0
    5.1962   -0.0000    0.0000 C   0  0  0  0  0  0  0  0  0  0  0  0
    3.8971    2.2500    0.0000 O   0  0  0  0  0  0  0  0  0  0  0  0
  1  2  1  0
  2  3  1  0
  3  4  1  0
  4  5  1  0
  4  6  2  0
M  END
>  <Title>  (182) 
idAAFBgen14

$$$$

     RDKit          2D

 42 47  0  0  0  0  0  0  0  0999 V2000
   -3.1771   -5.9156    0.0000 C   0  0  0  0  0  0  0  0  0  0  0  0
   -1.9635   -5.0339    0.0000 C   0  0  0  0  0  0  0  0  0  0  0  0
   -0.7500   -5.9156    0.0000 C   0  0  0  0  0  0  0  0  0  0  0  0
    0.7500   -5.9156    0.0000 C   0  0  0  0  0  0  0  0  0  0  0  0
    1.9635   -5.0339    0.0000 C   0  0  0  0  0  0  0  0  0  0  0  0
    2.4271   -3.6073    0.0000 C   0  0  0  0  0  0  0  0  0  0  0  0
    1.9635   -2.1807    0.0000 C   0  0  0  0  0  0  0  0  0  0  0  0
    3.1771   -1.2990    0.0000 C   0  0  0  0  0  0  0  0  0  0  0  0
    3.0203    0.1927    0.0000 O   0  0  0  0  0  0  0  0  0  0  0  0
    4.5474   -1.9091    0.0000 N   0  0  0  0  0  0  0  0  0  0  0  0
    5.7609   -1.0275    0.0000 C   0  0  0  0  0  0  0  0  0  0  0  0
    5.7609    0.4725    0.0000 N   0  0  0  0  0  0  0  0  0  0  0  0
    7.1875    0.9361    0.0000 N   0  0  0  0  0  0  0  0  0  0  0  0
    8.0692   -0.2775    0.0000 N   0  0  0  0  0  0  0  0  0  0  0  0
    7.1875   -1.4910    0.0000 N   0  0  0  0  0  0  0  0  0  0  0  0
    7.6510   -2.9176    0.0000 C   0  0  0  0  0  0  0  0  0  0  0  0
    9.0776   -3.3811    0.0000 C   0  0  0  0  0  0  0  0  0  0  0  0
    9.0776   -4.8811    0.0000 C   0  0  0  0  0  0  0  0  0  0  0  0
    7.6510   -5.3446    0.0000 C   0  0  0  0  0  0  0  0  0  0  0  0
    7.1875   -6.7712    0.0000 C   0  0  0  0  0  0  0  0  0  0  0  0
    8.1912   -7.8859    0.0000 O   0  0  0  0  0  0  0  0  0  0  0  0
    5.7203   -7.0831    0.0000 N   0  0  0  0  0  0  0  0  0  0  0  0
    5.2567   -8.5097    0.0000 C   0  0  0  0  0  0  0  0  0  0  0  0
    3.7895   -8.8215    0.0000 N   0  0  0  0  0  0  0  0  0  0  0  0
    3.3260  -10.2481    0.0000 N   0  0  0  0  0  0  0  0  0  0  0  0
    4.3297  -11.3628    0.0000 N   0  0  0  0  0  0  0  0  0  0  0  0
    5.7969  -11.0510    0.0000 N   0  0  0  0  0  0  0  0  0  0  0  0
    6.2604   -9.6244    0.0000 N   0  0  0  0  0  0  0  0  0  0  0  0
    6.7693   -4.1311    0.0000 C   0  0  0  0  0  0  0  0  0  0  0  0
    5.2693   -4.1311    0.0000 O   0  0  0  0  0  0  0  0  0  0  0  0
    0.7500   -1.2990    0.0000 C   0  0  0  0  0  0  0  0  0  0  0  0
    1.5000    0.0000    0.0000 C   0  0  0  0  0  0  0  0  0  0  0  0
    0.7500    1.2990    0.0000 C   0  0  0  0  0  0  0  0  0  0  0  0
   -0.7500    1.2990    0.0000 C   0  0  0  0  0  0  0  0  0  0  0  0
   -1.5000    0.0000    0.0000 C   0  0  0  0  0  0  0  0  0  0  0  0
   -0.7500   -1.2990    0.0000 C   0  0  0  0  0  0  0  0  0  0  0  0
   -1.9635   -2.1807    0.0000 C   0  0  0  0  0  0  0  0  0  0  0  0
   -2.9672   -1.0660    0.0000 C   0  0  0  0  0  0  0  0  0  0  0  0
   -4.4344   -1.3779    0.0000 C   0  0  0  0  0  0  0  0  0  0  0  0
   -4.8980   -2.8045    0.0000 C   0  0  0  0  0  0  0  0  0  0  0  0
   -3.8943   -3.9192    0.0000 C   0  0  0  0  0  0  0  0  0  0  0  0
   -2.4271   -3.6073    0.0000 C   0  0  0  0  0  0  0  0  0  0  0  0
  1  2  1  0
  2  3  2  0
  3  4  1  0
  4  5  1  0
  5  6  1  0
  6  7  2  0
  7  8  1  0
  8  9  2  0
  8 10  1  0
 10 11  1  0
 11 12  2  0
 12 13  1  0
 13 14  2  0
 14 15  1  0
 15 16  1  0
 16 17  2  0
 17 18  1  0
 18 19  2  0
 19 20  1  0
 20 21  2  0
 20 22  1  0
 22 23  1  0
 23 24  2  0
 24 25  1  0
 25 26  2  0
 26 27  1  0
 27 28  2  0
 19 29  1  0
 29 30  2  0
  7 31  1  0
 31 32  2  0
 32 33  1  0
 33 34  2  0
 34 35  1  0
 35 36  2  0
 36 37  1  0
 37 38  2  0
 38 39  1  0
 39 40  2  0
 40 41  1  0
 41 42  2  0
 42  2  1  0
 15 11  1  0
 29 16  1  0
 36 31  1  0
 42 37  1  0
 28 23  1  0
M  END
>  <Title>  (183) 
idAAFCgen14

$$$$

     RDKit          2D

 45 49  0  0  0  0  0  0  0  0999 V2000
  -10.7282   -4.2902    0.0000 C   0  0  0  0  0  0  0  0  0  0  0  0
   -9.5382   -3.3770    0.0000 C   0  0  0  0  0  0  0  0  0  0  0  0
   -8.3482   -2.4639    0.0000 C   0  0  0  0  0  0  0  0  0  0  0  0
   -6.9624   -3.0379    0.0000 C   0  0  0  0  0  0  0  0  0  0  0  0
   -5.7723   -2.1248    0.0000 C   0  0  0  0  0  0  0  0  0  0  0  0
   -5.9681   -0.6376    0.0000 O   0  0  0  0  0  0  0  0  0  0  0  0
   -4.3865   -2.6988    0.0000 N   0  0  0  0  0  0  0  0  0  0  0  0
   -3.1965   -1.7857    0.0000 C   0  0  0  0  0  0  0  0  0  0  0  0
   -1.8107   -2.3597    0.0000 C   0  0  0  0  0  0  0  0  0  0  0  0
   -1.8107   -3.8597    0.0000 C   0  0  0  0  0  0  0  0  0  0  0  0
   -0.7500   -4.9204    0.0000 C   0  0  0  0  0  0  0  0  0  0  0  0
    0.7500   -4.9204    0.0000 C   0  0  0  0  0  0  0  0  0  0  0  0
    1.3240   -6.3062    0.0000 O   0  0  0  0  0  0  0  0  0  0  0  0
    0.4109   -7.4962    0.0000 C   0  0  0  0  0  0  0  0  0  0  0  0
   -1.0763   -7.3004    0.0000 O   0  0  0  0  0  0  0  0  0  0  0  0
    0.9849   -8.8820    0.0000 N   0  0  0  0  0  0  0  0  0  0  0  0
    0.0718  -10.0721    0.0000 C   0  0  0  0  0  0  0  0  0  0  0  0
   -1.4277  -10.0328    0.0000 N   0  0  0  0  0  0  0  0  0  0  0  0
   -1.9284  -11.4468    0.0000 N   0  0  0  0  0  0  0  0  0  0  0  0
   -0.7384  -12.3599    0.0000 N   0  0  0  0  0  0  0  0  0  0  0  0
    0.4978  -11.5103    0.0000 N   0  0  0  0  0  0  0  0  0  0  0  0
    1.9118  -12.0110    0.0000 N   0  0  0  0  0  0  0  0  0  0  0  0
    3.1479  -11.1614    0.0000 C   0  0  0  0  0  0  0  0  0  0  0  0
    4.3380  -12.0745    0.0000 C   0  0  0  0  0  0  0  0  0  0  0  0
    3.8373  -13.4885    0.0000 N   0  0  0  0  0  0  0  0  0  0  0  0
    4.6869  -14.7247    0.0000 C   0  0  0  0  0  0  0  0  0  0  0  0
    6.1822  -14.6070    0.0000 O   0  0  0  0  0  0  0  0  0  0  0  0
    4.0411  -16.0786    0.0000 N   0  0  0  0  0  0  0  0  0  0  0  0
    4.8907  -17.3147    0.0000 C   0  0  0  0  0  0  0  0  0  0  0  0
    6.3861  -17.1971    0.0000 N   0  0  0  0  0  0  0  0  0  0  0  0
    7.2357  -18.4332    0.0000 N   0  0  0  0  0  0  0  0  0  0  0  0
    6.5899  -19.7871    0.0000 N   0  0  0  0  0  0  0  0  0  0  0  0
    5.0946  -19.9048    0.0000 N   0  0  0  0  0  0  0  0  0  0  0  0
    4.2449  -18.6686    0.0000 N   0  0  0  0  0  0  0  0  0  0  0  0
    2.3378  -13.4492    0.0000 C   0  0  0  0  0  0  0  0  0  0  0  0
    1.4246  -14.6393    0.0000 O   0  0  0  0  0  0  0  0  0  0  0  0
    1.8107   -3.8597    0.0000 C   0  0  0  0  0  0  0  0  0  0  0  0
    3.1965   -4.4337    0.0000 O   0  0  0  0  0  0  0  0  0  0  0  0
    1.8107   -2.3597    0.0000 O   0  0  0  0  0  0  0  0  0  0  0  0
    0.7500   -1.2990    0.0000 C   0  0  0  0  0  0  0  0  0  0  0  0
    1.5000    0.0000    0.0000 C   0  0  0  0  0  0  0  0  0  0  0  0
    0.7500    1.2990    0.0000 C   0  0  0  0  0  0  0  0  0  0  0  0
   -0.7500    1.2990    0.0000 C   0  0  0  0  0  0  0  0  0  0  0  0
   -1.5000    0.0000    0.0000 C   0  0  0  0  0  0  0  0  0  0  0  0
   -0.7500   -1.2990    0.0000 C   0  0  0  0  0  0  0  0  0  0  0  0
  1  2  3  0
  2  3  1  0
  3  4  1  0
  4  5  1  0
  5  6  2  0
  5  7  1  0
  7  8  1  0
  8  9  1  0
  9 10  2  0
 10 11  1  0
 11 12  2  0
 12 13  1  0
 13 14  1  0
 14 15  2  0
 14 16  1  0
 16 17  1  0
 17 18  2  0
 18 19  1  0
 19 20  2  0
 20 21  1  0
 21 22  1  0
 22 23  1  0
 23 24  1  0
 24 25  1  0
 25 26  1  0
 26 27  2  0
 26 28  1  0
 28 29  1  0
 29 30  2  0
 30 31  1  0
 31 32  2  0
 32 33  1  0
 33 34  2  0
 25 35  1  0
 35 36  2  0
 12 37  1  0
 37 38  2  0
 37 39  1  0
 39 40  1  0
 40 41  2  0
 41 42  1  0
 42 43  2  0
 43 44  1  0
 44 45  2  0
 45  9  1  0
 21 17  1  0
 35 22  1  0
 45 40  1  0
 34 29  1  0
M  END
>  <Title>  (184) 
idAAFDgen14

$$$$

     RDKit          2D

 18 19  0  0  0  0  0  0  0  0999 V2000
   -0.7500   -3.8971    0.0000 O   0  0  0  0  0  0  0  0  0  0  0  0
    0.7500   -3.8971    0.0000 C   0  0  0  0  0  0  0  0  0  0  0  0
    1.5000   -2.5981    0.0000 C   0  0  0  0  0  0  0  0  0  0  0  0
    0.7500   -1.2990    0.0000 C   0  0  0  0  0  0  0  0  0  0  0  0
    1.5000    0.0000    0.0000 C   0  0  0  0  0  0  0  0  0  0  0  0
    0.7500    1.2990    0.0000 C   0  0  0  0  0  0  0  0  0  0  0  0
   -0.7500    1.2990    0.0000 C   0  0  0  0  0  0  0  0  0  0  0  0
   -1.5000    2.5981    0.0000 F   0  0  0  0  0  0  0  0  0  0  0  0
   -1.5000    0.0000    0.0000 C   0  0  0  0  0  0  0  0  0  0  0  0
   -0.7500   -1.2990    0.0000 C   0  0  0  0  0  0  0  0  0  0  0  0
    1.5000   -5.1962    0.0000 N   0  0  0  0  0  0  0  0  0  0  0  0
    0.7500   -6.4952    0.0000 C   0  0  0  0  0  0  0  0  0  0  0  0
    1.5000   -7.7942    0.0000 C   0  0  0  0  0  0  0  0  0  0  0  0
    0.7500   -9.0933    0.0000 C   0  0  0  0  0  0  0  0  0  0  0  0
    1.5000  -10.3923    0.0000 C   0  0  0  0  0  0  0  0  0  0  0  0
    3.0000  -10.3923    0.0000 C   0  0  0  0  0  0  0  0  0  0  0  0
    3.7500   -9.0933    0.0000 N   0  0  0  0  0  0  0  0  0  0  0  0
    3.0000   -7.7942    0.0000 C   0  0  0  0  0  0  0  0  0  0  0  0
  1  2  2  0
  2  3  1  0
  3  4  1  0
  4  5  2  0
  5  6  1  0
  6  7  2  0
  7  8  1  0
  7  9  1  0
  9 10  2  0
  2 11  1  0
 11 12  1  0
 12 13  1  0
 13 14  2  0
 14 15  1  0
 15 16  2  0
 16 17  1  0
 17 18  2  0
 10  4  1  0
 18 13  1  0
M  END
>  <Title>  (185) 
idAAFEgen14

$$$$

     RDKit          2D

 10 10  0  0  0  0  0  0  0  0999 V2000
    5.2500   -1.2990    0.0000 C   0  0  0  0  0  0  0  0  0  0  0  0
    3.7500   -1.2990    0.0000 C   0  0  0  0  0  0  0  0  0  0  0  0
    3.0000   -2.5981    0.0000 C   0  0  0  0  0  0  0  0  0  0  0  0
    3.0000    0.0000    0.0000 C   0  0  0  0  0  0  0  0  0  0  0  0
    1.5000    0.0000    0.0000 C   0  0  0  0  0  0  0  0  0  0  0  0
    0.7500   -1.2990    0.0000 C   0  0  0  0  0  0  0  0  0  0  0  0
   -0.7500   -1.2990    0.0000 C   0  0  0  0  0  0  0  0  0  0  0  0
   -1.5000    0.0000    0.0000 C   0  0  0  0  0  0  0  0  0  0  0  0
   -0.7500    1.2990    0.0000 C   0  0  0  0  0  0  0  0  0  0  0  0
    0.7500    1.2990    0.0000 N   0  0  0  0  0  0  0  0  0  0  0  0
  1  2  1  0
  2  3  1  0
  2  4  1  0
  4  5  1  0
  5  6  2  0
  6  7  1  0
  7  8  2  0
  8  9  1  0
  9 10  2  0
 10  5  1  0
M  END
>  <Title>  (186) 
idAAFFgen14

$$$$

     RDKit          2D

 13 13  0  0  0  0  0  0  0  0999 V2000
    8.2500    1.2990    0.0000 C   0  0  0  0  0  0  0  0  0  0  0  0
    7.5000   -0.0000    0.0000 C   0  0  0  0  0  0  0  0  0  0  0  0
    6.0000    0.0000    0.0000 C   0  0  0  0  0  0  0  0  0  0  0  0
    5.2500   -1.2990    0.0000 C   0  0  0  0  0  0  0  0  0  0  0  0
    6.0000   -2.5981    0.0000 C   0  0  0  0  0  0  0  0  0  0  0  0
    3.7500   -1.2990    0.0000 N   0  0  0  0  0  0  0  0  0  0  0  0
    3.0000    0.0000    0.0000 C   0  0  0  0  0  0  0  0  0  0  0  0
    1.5000    0.0000    0.0000 C   0  0  0  0  0  0  0  0  0  0  0  0
    0.7500   -1.2990    0.0000 C   0  0  0  0  0  0  0  0  0  0  0  0
   -0.7500   -1.2990    0.0000 C   0  0  0  0  0  0  0  0  0  0  0  0
   -1.5000    0.0000    0.0000 C   0  0  0  0  0  0  0  0  0  0  0  0
   -0.7500    1.2990    0.0000 N   0  0  0  0  0  0  0  0  0  0  0  0
    0.7500    1.2990    0.0000 C   0  0  0  0  0  0  0  0  0  0  0  0
  1  2  1  0
  2  3  1  0
  3  4  1  0
  4  5  1  0
  4  6  1  0
  6  7  1  0
  7  8  1  0
  8  9  2  0
  9 10  1  0
 10 11  2  0
 11 12  1  0
 12 13  2  0
 13  8  1  0
M  END
>  <Title>  (187) 
idAAFGgen14

$$$$

     RDKit          2D

 36 40  0  0  0  0  0  0  0  0999 V2000
   -3.1476   -2.1380    0.0000 C   0  0  0  0  0  0  0  0  0  0  0  0
   -1.6852   -2.4718    0.0000 C   0  0  0  0  0  0  0  0  0  0  0  0
   -1.3515   -3.9342    0.0000 C   0  0  0  0  0  0  0  0  0  0  0  0
   -0.0000   -4.5850    0.0000 C   0  0  0  0  0  0  0  0  0  0  0  0
   -0.0000   -6.0850    0.0000 C   0  0  0  0  0  0  0  0  0  0  0  0
    1.2990   -6.8350    0.0000 O   0  0  0  0  0  0  0  0  0  0  0  0
   -1.2990   -6.8350    0.0000 N   0  0  0  0  0  0  0  0  0  0  0  0
   -1.2990   -8.3350    0.0000 C   0  0  0  0  0  0  0  0  0  0  0  0
   -0.0855   -9.2167    0.0000 N   0  0  0  0  0  0  0  0  0  0  0  0
   -0.5490  -10.6433    0.0000 N   0  0  0  0  0  0  0  0  0  0  0  0
   -2.0490  -10.6433    0.0000 N   0  0  0  0  0  0  0  0  0  0  0  0
   -2.5126   -9.2167    0.0000 N   0  0  0  0  0  0  0  0  0  0  0  0
   -3.9391   -8.7532    0.0000 N   0  0  0  0  0  0  0  0  0  0  0  0
   -5.1527   -9.6348    0.0000 C   0  0  0  0  0  0  0  0  0  0  0  0
   -6.3662   -8.7532    0.0000 C   0  0  0  0  0  0  0  0  0  0  0  0
   -5.9027   -7.3266    0.0000 N   0  0  0  0  0  0  0  0  0  0  0  0
   -6.7844   -6.1130    0.0000 C   0  0  0  0  0  0  0  0  0  0  0  0
   -8.2761   -6.2698    0.0000 O   0  0  0  0  0  0  0  0  0  0  0  0
   -6.1742   -4.7427    0.0000 N   0  0  0  0  0  0  0  0  0  0  0  0
   -7.0559   -3.5292    0.0000 C   0  0  0  0  0  0  0  0  0  0  0  0
   -6.4458   -2.1589    0.0000 N   0  0  0  0  0  0  0  0  0  0  0  0
   -7.3275   -0.9454    0.0000 N   0  0  0  0  0  0  0  0  0  0  0  0
   -8.8193   -1.1022    0.0000 N   0  0  0  0  0  0  0  0  0  0  0  0
   -9.4294   -2.4725    0.0000 N   0  0  0  0  0  0  0  0  0  0  0  0
   -8.5477   -3.6860    0.0000 N   0  0  0  0  0  0  0  0  0  0  0  0
   -4.4027   -7.3266    0.0000 C   0  0  0  0  0  0  0  0  0  0  0  0
   -3.5210   -6.1130    0.0000 O   0  0  0  0  0  0  0  0  0  0  0  0
    1.3515   -3.9342    0.0000 C   0  0  0  0  0  0  0  0  0  0  0  0
    2.5242   -4.8694    0.0000 O   0  0  0  0  0  0  0  0  0  0  0  0
    1.6852   -2.4718    0.0000 O   0  0  0  0  0  0  0  0  0  0  0  0
    0.7500   -1.2990    0.0000 C   0  0  0  0  0  0  0  0  0  0  0  0
    1.5000    0.0000    0.0000 C   0  0  0  0  0  0  0  0  0  0  0  0
    0.7500    1.2990    0.0000 C   0  0  0  0  0  0  0  0  0  0  0  0
   -0.7500    1.2990    0.0000 C   0  0  0  0  0  0  0  0  0  0  0  0
   -1.5000    0.0000    0.0000 C   0  0  0  0  0  0  0  0  0  0  0  0
   -0.7500   -1.2990    0.0000 C   0  0  0  0  0  0  0  0  0  0  0  0
  1  2  1  0
  2  3  2  0
  3  4  1  0
  4  5  1  0
  5  6  2  0
  5  7  1  0
  7  8  1  0
  8  9  2  0
  9 10  1  0
 10 11  2  0
 11 12  1  0
 12 13  1  0
 13 14  1  0
 14 15  1  0
 15 16  1  0
 16 17  1  0
 17 18  2  0
 17 19  1  0
 19 20  1  0
 20 21  2  0
 21 22  1  0
 22 23  2  0
 23 24  1  0
 24 25  2  0
 16 26  1  0
 26 27  2  0
  4 28  1  0
 28 29  2  0
 28 30  1  0
 30 31  1  0
 31 32  2  0
 32 33  1  0
 33 34  2  0
 34 35  1  0
 35 36  2  0
 36  2  1  0
 12  8  1  0
 26 13  1  0
 36 31  1  0
 25 20  1  0
M  END
>  <Title>  (188) 
idAAFHgen14

$$$$

     RDKit          2D

 22 24  0  0  0  0  0  0  0  0999 V2000
   -2.6401   -3.1891    0.0000 C   0  0  0  0  0  0  0  0  0  0  0  0
   -1.2135   -2.7256    0.0000 C   0  0  0  0  0  0  0  0  0  0  0  0
   -0.0000   -3.6073    0.0000 C   0  0  0  0  0  0  0  0  0  0  0  0
    1.2135   -2.7256    0.0000 S   0  0  0  0  0  4  0  0  0  0  0  0
    2.6401   -3.1891    0.0000 N   0  0  0  0  0  0  0  0  0  0  0  0
    2.9520   -4.6564    0.0000 C   0  0  0  0  0  0  0  0  0  0  0  0
    4.3786   -5.1199    0.0000 C   0  0  0  0  0  0  0  0  0  0  0  0
    4.6904   -6.5871    0.0000 O   0  0  0  0  0  0  0  0  0  0  0  0
    3.7548   -2.1855    0.0000 N   0  0  0  0  0  0  0  0  0  0  0  0
    5.1814   -2.6490    0.0000 C   0  0  0  0  0  0  0  0  0  0  0  0
    5.4933   -4.1162    0.0000 N   0  0  0  0  0  0  0  0  0  0  0  0
    6.9199   -4.5797    0.0000 N   0  0  0  0  0  0  0  0  0  0  0  0
    8.0346   -3.5760    0.0000 N   0  0  0  0  0  0  0  0  0  0  0  0
    7.7227   -2.1088    0.0000 N   0  0  0  0  0  0  0  0  0  0  0  0
    6.2961   -1.6453    0.0000 N   0  0  0  0  0  0  0  0  0  0  0  0
    0.7500   -1.2990    0.0000 C   0  0  0  0  0  0  0  0  0  0  0  0
    1.5000    0.0000    0.0000 C   0  0  0  0  0  0  0  0  0  0  0  0
    0.7500    1.2990    0.0000 C   0  0  0  0  0  0  0  0  0  0  0  0
   -0.7500    1.2990    0.0000 C   0  0  0  0  0  0  0  0  0  0  0  0
   -1.5000    2.5981    0.0000 O   0  0  0  0  0  0  0  0  0  0  0  0
   -1.5000    0.0000    0.0000 C   0  0  0  0  0  0  0  0  0  0  0  0
   -0.7500   -1.2990    0.0000 C   0  0  0  0  0  0  0  0  0  0  0  0
  1  2  1  0
  2  3  2  0
  3  4  1  0
  4  5  1  0
  5  6  1  0
  6  7  1  0
  7  8  2  0
  5  9  1  0
  9 10  1  0
 10 11  2  0
 11 12  1  0
 12 13  2  0
 13 14  1  0
 14 15  2  0
  4 16  1  0
 16 17  2  0
 17 18  1  0
 18 19  2  0
 19 20  1  0
 19 21  1  0
 21 22  2  0
 22  2  1  0
 15 10  1  0
 22 16  1  0
M  END
>  <Title>  (189) 
idAAFIgen14

$$$$

     RDKit          2D

 35 39  0  0  0  0  0  0  0  0999 V2000
   -3.1476   -2.1380    0.0000 C   0  0  0  0  0  0  0  0  0  0  0  0
   -1.6852   -2.4718    0.0000 C   0  0  0  0  0  0  0  0  0  0  0  0
   -1.3515   -3.9342    0.0000 C   0  0  0  0  0  0  0  0  0  0  0  0
   -0.0000   -4.5850    0.0000 N   0  0  0  0  0  0  0  0  0  0  0  0
    1.3515   -3.9342    0.0000 C   0  0  0  0  0  0  0  0  0  0  0  0
    1.6852   -2.4718    0.0000 C   0  0  0  0  0  0  0  0  0  0  0  0
    3.1476   -2.1380    0.0000 C   0  0  0  0  0  0  0  0  0  0  0  0
    3.5898   -0.7046    0.0000 O   0  0  0  0  0  0  0  0  0  0  0  0
    4.1679   -3.2376    0.0000 N   0  0  0  0  0  0  0  0  0  0  0  0
    5.6303   -2.9038    0.0000 C   0  0  0  0  0  0  0  0  0  0  0  0
    6.2198   -1.5245    0.0000 N   0  0  0  0  0  0  0  0  0  0  0  0
    7.7138   -1.6590    0.0000 N   0  0  0  0  0  0  0  0  0  0  0  0
    8.0476   -3.1214    0.0000 N   0  0  0  0  0  0  0  0  0  0  0  0
    6.7599   -3.8907    0.0000 N   0  0  0  0  0  0  0  0  0  0  0  0
    6.6254   -5.3847    0.0000 C   0  0  0  0  0  0  0  0  0  0  0  0
    7.7550   -6.3716    0.0000 C   0  0  0  0  0  0  0  0  0  0  0  0
    7.1655   -7.7509    0.0000 C   0  0  0  0  0  0  0  0  0  0  0  0
    5.6715   -7.6164    0.0000 C   0  0  0  0  0  0  0  0  0  0  0  0
    4.6846   -8.7460    0.0000 C   0  0  0  0  0  0  0  0  0  0  0  0
    5.1694  -10.1655    0.0000 O   0  0  0  0  0  0  0  0  0  0  0  0
    3.2129   -8.4561    0.0000 N   0  0  0  0  0  0  0  0  0  0  0  0
    2.2260   -9.5857    0.0000 C   0  0  0  0  0  0  0  0  0  0  0  0
    0.7543   -9.2959    0.0000 N   0  0  0  0  0  0  0  0  0  0  0  0
   -0.2326  -10.4255    0.0000 N   0  0  0  0  0  0  0  0  0  0  0  0
    0.2522  -11.8450    0.0000 N   0  0  0  0  0  0  0  0  0  0  0  0
    1.7239  -12.1348    0.0000 N   0  0  0  0  0  0  0  0  0  0  0  0
    2.7108  -11.0052    0.0000 N   0  0  0  0  0  0  0  0  0  0  0  0
    5.3378   -6.1540    0.0000 C   0  0  0  0  0  0  0  0  0  0  0  0
    3.9585   -5.5645    0.0000 O   0  0  0  0  0  0  0  0  0  0  0  0
    0.7500   -1.2990    0.0000 C   0  0  0  0  0  0  0  0  0  0  0  0
    1.5000    0.0000    0.0000 C   0  0  0  0  0  0  0  0  0  0  0  0
    0.7500    1.2990    0.0000 C   0  0  0  0  0  0  0  0  0  0  0  0
   -0.7500    1.2990    0.0000 C   0  0  0  0  0  0  0  0  0  0  0  0
   -1.5000    0.0000    0.0000 C   0  0  0  0  0  0  0  0  0  0  0  0
   -0.7500   -1.2990    0.0000 C   0  0  0  0  0  0  0  0  0  0  0  0
  1  2  1  0
  2  3  2  0
  3  4  1  0
  4  5  1  0
  5  6  1  0
  6  7  1  0
  7  8  2  0
  7  9  1  0
  9 10  1  0
 10 11  2  0
 11 12  1  0
 12 13  2  0
 13 14  1  0
 14 15  1  0
 15 16  2  0
 16 17  1  0
 17 18  2  0
 18 19  1  0
 19 20  2  0
 19 21  1  0
 21 22  1  0
 22 23  2  0
 23 24  1  0
 24 25  2  0
 25 26  1  0
 26 27  2  0
 18 28  1  0
 28 29  2  0
  6 30  1  0
 30 31  2  0
 31 32  1  0
 32 33  2  0
 33 34  1  0
 34 35  2  0
 35  2  1  0
 14 10  1  0
 28 15  1  0
 35 30  1  0
 27 22  1  0
M  END
>  <Title>  (190) 
idAAFJgen14

$$$$

     RDKit          2D

 39 44  0  0  0  0  0  0  0  0999 V2000
   -3.4182    0.0420    0.0000 C   0  0  0  0  0  0  0  0  0  0  0  0
   -3.8817   -1.3846    0.0000 C   0  0  0  0  0  0  0  0  0  0  0  0
   -5.3083   -1.8481    0.0000 N   0  0  0  0  0  0  0  0  0  0  0  0
   -5.3083   -3.3481    0.0000 N   0  0  0  0  0  0  0  0  0  0  0  0
   -3.8817   -3.8116    0.0000 N   0  0  0  0  0  0  0  0  0  0  0  0
   -3.0000   -2.5981    0.0000 N   0  0  0  0  0  0  0  0  0  0  0  0
   -1.5000   -2.5981    0.0000 C   0  0  0  0  0  0  0  0  0  0  0  0
   -0.7500   -3.8971    0.0000 C   0  0  0  0  0  0  0  0  0  0  0  0
    0.7500   -3.8971    0.0000 C   0  0  0  0  0  0  0  0  0  0  0  0
    1.5000   -2.5981    0.0000 C   0  0  0  0  0  0  0  0  0  0  0  0
    3.0000   -2.5981    0.0000 C   0  0  0  0  0  0  0  0  0  0  0  0
    3.7500   -1.2990    0.0000 O   0  0  0  0  0  0  0  0  0  0  0  0
    3.7500   -3.8971    0.0000 N   0  0  0  0  0  0  0  0  0  0  0  0
    5.2500   -3.8971    0.0000 C   0  0  0  0  0  0  0  0  0  0  0  0
    6.1317   -2.6836    0.0000 N   0  0  0  0  0  0  0  0  0  0  0  0
    7.5583   -3.1471    0.0000 N   0  0  0  0  0  0  0  0  0  0  0  0
    7.5583   -4.6471    0.0000 N   0  0  0  0  0  0  0  0  0  0  0  0
    6.1317   -5.1106    0.0000 N   0  0  0  0  0  0  0  0  0  0  0  0
    5.6682   -6.5372    0.0000 N   0  0  0  0  0  0  0  0  0  0  0  0
    6.5498   -7.7508    0.0000 C   0  0  0  0  0  0  0  0  0  0  0  0
    5.6682   -8.9643    0.0000 C   0  0  0  0  0  0  0  0  0  0  0  0
    4.2416   -8.5008    0.0000 N   0  0  0  0  0  0  0  0  0  0  0  0
    3.0280   -9.3824    0.0000 C   0  0  0  0  0  0  0  0  0  0  0  0
    3.1848  -10.8742    0.0000 O   0  0  0  0  0  0  0  0  0  0  0  0
    1.6577   -8.7723    0.0000 N   0  0  0  0  0  0  0  0  0  0  0  0
    0.4442   -9.6540    0.0000 C   0  0  0  0  0  0  0  0  0  0  0  0
   -0.9261   -9.0439    0.0000 N   0  0  0  0  0  0  0  0  0  0  0  0
   -2.1396   -9.9256    0.0000 N   0  0  0  0  0  0  0  0  0  0  0  0
   -1.9829  -11.4174    0.0000 N   0  0  0  0  0  0  0  0  0  0  0  0
   -0.6125  -12.0275    0.0000 N   0  0  0  0  0  0  0  0  0  0  0  0
    0.6010  -11.1458    0.0000 N   0  0  0  0  0  0  0  0  0  0  0  0
    4.2416   -7.0008    0.0000 C   0  0  0  0  0  0  0  0  0  0  0  0
    3.0280   -6.1191    0.0000 O   0  0  0  0  0  0  0  0  0  0  0  0
    0.7500   -1.2990    0.0000 C   0  0  0  0  0  0  0  0  0  0  0  0
    1.5000    0.0000    0.0000 C   0  0  0  0  0  0  0  0  0  0  0  0
    0.7500    1.2990    0.0000 C   0  0  0  0  0  0  0  0  0  0  0  0
   -0.7500    1.2990    0.0000 C   0  0  0  0  0  0  0  0  0  0  0  0
   -1.5000    0.0000    0.0000 C   0  0  0  0  0  0  0  0  0  0  0  0
   -0.7500   -1.2990    0.0000 C   0  0  0  0  0  0  0  0  0  0  0  0
  1  2  1  0
  2  3  2  0
  3  4  1  0
  4  5  2  0
  5  6  1  0
  6  7  1  0
  7  8  2  0
  8  9  1  0
  9 10  2  0
 10 11  1  0
 11 12  2  0
 11 13  1  0
 13 14  1  0
 14 15  2  0
 15 16  1  0
 16 17  2  0
 17 18  1  0
 18 19  1  0
 19 20  1  0
 20 21  1  0
 21 22  1  0
 22 23  1  0
 23 24  2  0
 23 25  1  0
 25 26  1  0
 26 27  2  0
 27 28  1  0
 28 29  2  0
 29 30  1  0
 30 31  2  0
 22 32  1  0
 32 33  2  0
 10 34  1  0
 34 35  2  0
 35 36  1  0
 36 37  2  0
 37 38  1  0
 38 39  2  0
  6  2  1  0
 39  7  1  0
 18 14  1  0
 32 19  1  0
 39 34  1  0
 31 26  1  0
M  END
>  <Title>  (191) 
idAAFKgen14

$$$$

     RDKit          2D

 37 41  0  0  0  0  0  0  0  0999 V2000
   -5.2500   -3.8971    0.0000 C   0  0  0  0  0  0  0  0  0  0  0  0
   -3.7500   -3.8971    0.0000 C   0  0  0  0  0  0  0  0  0  0  0  0
   -3.0000   -5.1962    0.0000 O   0  0  0  0  0  0  0  0  0  0  0  0
   -3.0000   -2.5981    0.0000 N   0  0  0  0  0  0  0  0  0  0  0  0
   -1.5000   -2.5981    0.0000 C   0  0  0  0  0  0  0  0  0  0  0  0
   -0.7500   -3.8971    0.0000 C   0  0  0  0  0  0  0  0  0  0  0  0
    0.7500   -3.8971    0.0000 C   0  0  0  0  0  0  0  0  0  0  0  0
    1.5000   -2.5981    0.0000 C   0  0  0  0  0  0  0  0  0  0  0  0
    3.0000   -2.5981    0.0000 C   0  0  0  0  0  0  0  0  0  0  0  0
    3.7500   -1.2990    0.0000 O   0  0  0  0  0  0  0  0  0  0  0  0
    3.7500   -3.8971    0.0000 N   0  0  0  0  0  0  0  0  0  0  0  0
    5.2500   -3.8971    0.0000 C   0  0  0  0  0  0  0  0  0  0  0  0
    6.1317   -2.6836    0.0000 N   0  0  0  0  0  0  0  0  0  0  0  0
    7.5583   -3.1471    0.0000 N   0  0  0  0  0  0  0  0  0  0  0  0
    7.5583   -4.6471    0.0000 N   0  0  0  0  0  0  0  0  0  0  0  0
    6.1317   -5.1106    0.0000 N   0  0  0  0  0  0  0  0  0  0  0  0
    5.6682   -6.5372    0.0000 N   0  0  0  0  0  0  0  0  0  0  0  0
    6.5498   -7.7508    0.0000 C   0  0  0  0  0  0  0  0  0  0  0  0
    5.6682   -8.9643    0.0000 C   0  0  0  0  0  0  0  0  0  0  0  0
    4.2416   -8.5008    0.0000 N   0  0  0  0  0  0  0  0  0  0  0  0
    3.0280   -9.3824    0.0000 C   0  0  0  0  0  0  0  0  0  0  0  0
    3.1848  -10.8742    0.0000 O   0  0  0  0  0  0  0  0  0  0  0  0
    1.6577   -8.7723    0.0000 N   0  0  0  0  0  0  0  0  0  0  0  0
    0.4442   -9.6540    0.0000 C   0  0  0  0  0  0  0  0  0  0  0  0
   -0.9261   -9.0439    0.0000 N   0  0  0  0  0  0  0  0  0  0  0  0
   -2.1396   -9.9256    0.0000 N   0  0  0  0  0  0  0  0  0  0  0  0
   -1.9829  -11.4174    0.0000 N   0  0  0  0  0  0  0  0  0  0  0  0
   -0.6125  -12.0275    0.0000 N   0  0  0  0  0  0  0  0  0  0  0  0
    0.6010  -11.1458    0.0000 N   0  0  0  0  0  0  0  0  0  0  0  0
    4.2416   -7.0008    0.0000 C   0  0  0  0  0  0  0  0  0  0  0  0
    3.0280   -6.1191    0.0000 O   0  0  0  0  0  0  0  0  0  0  0  0
    0.7500   -1.2990    0.0000 C   0  0  0  0  0  0  0  0  0  0  0  0
    1.5000    0.0000    0.0000 C   0  0  0  0  0  0  0  0  0  0  0  0
    0.7500    1.2990    0.0000 C   0  0  0  0  0  0  0  0  0  0  0  0
   -0.7500    1.2990    0.0000 C   0  0  0  0  0  0  0  0  0  0  0  0
   -1.5000    0.0000    0.0000 C   0  0  0  0  0  0  0  0  0  0  0  0
   -0.7500   -1.2990    0.0000 C   0  0  0  0  0  0  0  0  0  0  0  0
  1  2  1  0
  2  3  2  0
  2  4  1  0
  4  5  1  0
  5  6  2  0
  6  7  1  0
  7  8  2  0
  8  9  1  0
  9 10  2  0
  9 11  1  0
 11 12  1  0
 12 13  2  0
 13 14  1  0
 14 15  2  0
 15 16  1  0
 16 17  1  0
 17 18  1  0
 18 19  1  0
 19 20  1  0
 20 21  1  0
 21 22  2  0
 21 23  1  0
 23 24  1  0
 24 25  2  0
 25 26  1  0
 26 27  2  0
 27 28  1  0
 28 29  2  0
 20 30  1  0
 30 31  2  0
  8 32  1  0
 32 33  2  0
 33 34  1  0
 34 35  2  0
 35 36  1  0
 36 37  2  0
 37  5  1  0
 16 12  1  0
 30 17  1  0
 37 32  1  0
 29 24  1  0
M  END
>  <Title>  (192) 
idAAFLgen14

$$$$

     RDKit          2D

 10 10  0  0  0  0  0  0  0  0999 V2000
    5.2500   -1.2990    0.0000 C   0  0  0  0  0  0  0  0  0  0  0  0
    3.7500   -1.2990    0.0000 C   0  0  0  0  0  0  0  0  0  0  0  0
    3.0000   -2.5981    0.0000 C   0  0  0  0  0  0  0  0  0  0  0  0
    3.0000    0.0000    0.0000 C   0  0  0  0  0  0  0  0  0  0  0  0
    1.5000    0.0000    0.0000 C   0  0  0  0  0  0  0  0  0  0  0  0
    0.7500   -1.2990    0.0000 C   0  0  0  0  0  0  0  0  0  0  0  0
   -0.7500   -1.2990    0.0000 N   0  0  0  0  0  0  0  0  0  0  0  0
   -1.5000    0.0000    0.0000 C   0  0  0  0  0  0  0  0  0  0  0  0
   -0.7500    1.2990    0.0000 C   0  0  0  0  0  0  0  0  0  0  0  0
    0.7500    1.2990    0.0000 N   0  0  0  0  0  0  0  0  0  0  0  0
  1  2  1  0
  2  3  1  0
  2  4  1  0
  4  5  1  0
  5  6  2  0
  6  7  1  0
  7  8  2  0
  8  9  1  0
  9 10  2  0
 10  5  1  0
M  END
>  <Title>  (193) 
idAAFMgen14

$$$$

     RDKit          2D

 40 45  0  0  0  0  0  0  0  0999 V2000
   -5.1527    1.4425    0.0000 C   0  0  0  0  0  0  0  0  0  0  0  0
   -5.1527   -0.0575    0.0000 C   0  0  0  0  0  0  0  0  0  0  0  0
   -3.8536   -0.8075    0.0000 C   0  0  0  0  0  0  0  0  0  0  0  0
   -3.8536   -2.3075    0.0000 C   0  0  0  0  0  0  0  0  0  0  0  0
   -5.0672   -3.1891    0.0000 C   0  0  0  0  0  0  0  0  0  0  0  0
   -4.6036   -4.6157    0.0000 C   0  0  0  0  0  0  0  0  0  0  0  0
   -3.1036   -4.6157    0.0000 N   0  0  0  0  0  0  0  0  0  0  0  0
   -2.6401   -3.1891    0.0000 N   0  0  0  0  0  0  0  0  0  0  0  0
   -1.2135   -2.7256    0.0000 N   0  0  0  0  0  0  0  0  0  0  0  0
   -0.0000   -3.6073    0.0000 C   0  0  0  0  0  0  0  0  0  0  0  0
    1.2135   -2.7256    0.0000 C   0  0  0  0  0  0  0  0  0  0  0  0
    2.6401   -3.1891    0.0000 C   0  0  0  0  0  0  0  0  0  0  0  0
    3.7548   -2.1855    0.0000 O   0  0  0  0  0  0  0  0  0  0  0  0
    2.9520   -4.6564    0.0000 N   0  0  0  0  0  0  0  0  0  0  0  0
    4.3786   -5.1199    0.0000 C   0  0  0  0  0  0  0  0  0  0  0  0
    5.5921   -4.2382    0.0000 N   0  0  0  0  0  0  0  0  0  0  0  0
    6.8056   -5.1199    0.0000 N   0  0  0  0  0  0  0  0  0  0  0  0
    6.3421   -6.5465    0.0000 N   0  0  0  0  0  0  0  0  0  0  0  0
    4.8421   -6.5465    0.0000 N   0  0  0  0  0  0  0  0  0  0  0  0
    3.9604   -7.7600    0.0000 N   0  0  0  0  0  0  0  0  0  0  0  0
    4.4239   -9.1866    0.0000 C   0  0  0  0  0  0  0  0  0  0  0  0
    3.2104  -10.0683    0.0000 C   0  0  0  0  0  0  0  0  0  0  0  0
    1.9969   -9.1866    0.0000 N   0  0  0  0  0  0  0  0  0  0  0  0
    0.5703   -9.6501    0.0000 C   0  0  0  0  0  0  0  0  0  0  0  0
    0.2584  -11.1173    0.0000 O   0  0  0  0  0  0  0  0  0  0  0  0
   -0.5444   -8.6464    0.0000 N   0  0  0  0  0  0  0  0  0  0  0  0
   -1.9710   -9.1099    0.0000 C   0  0  0  0  0  0  0  0  0  0  0  0
   -3.0857   -8.1062    0.0000 N   0  0  0  0  0  0  0  0  0  0  0  0
   -4.5123   -8.5698    0.0000 N   0  0  0  0  0  0  0  0  0  0  0  0
   -4.8242  -10.0370    0.0000 N   0  0  0  0  0  0  0  0  0  0  0  0
   -3.7095  -11.0407    0.0000 N   0  0  0  0  0  0  0  0  0  0  0  0
   -2.2829  -10.5772    0.0000 N   0  0  0  0  0  0  0  0  0  0  0  0
    2.4604   -7.7600    0.0000 C   0  0  0  0  0  0  0  0  0  0  0  0
    1.5787   -6.5465    0.0000 O   0  0  0  0  0  0  0  0  0  0  0  0
    0.7500   -1.2990    0.0000 C   0  0  0  0  0  0  0  0  0  0  0  0
    1.5000    0.0000    0.0000 C   0  0  0  0  0  0  0  0  0  0  0  0
    0.7500    1.2990    0.0000 C   0  0  0  0  0  0  0  0  0  0  0  0
   -0.7500    1.2990    0.0000 C   0  0  0  0  0  0  0  0  0  0  0  0
   -1.5000    0.0000    0.0000 C   0  0  0  0  0  0  0  0  0  0  0  0
   -0.7500   -1.2990    0.0000 C   0  0  0  0  0  0  0  0  0  0  0  0
  1  2  1  0
  2  3  1  0
  3  4  1  0
  4  5  2  0
  5  6  1  0
  6  7  2  0
  7  8  1  0
  8  9  1  0
  9 10  1  0
 10 11  2  0
 11 12  1  0
 12 13  2  0
 12 14  1  0
 14 15  1  0
 15 16  2  0
 16 17  1  0
 17 18  2  0
 18 19  1  0
 19 20  1  0
 20 21  1  0
 21 22  1  0
 22 23  1  0
 23 24  1  0
 24 25  2  0
 24 26  1  0
 26 27  1  0
 27 28  2  0
 28 29  1  0
 29 30  2  0
 30 31  1  0
 31 32  2  0
 23 33  1  0
 33 34  2  0
 11 35  1  0
 35 36  2  0
 36 37  1  0
 37 38  2  0
 38 39  1  0
 39 40  2  0
  8  4  1  0
 40  9  1  0
 19 15  1  0
 33 20  1  0
 40 35  1  0
 32 27  1  0
M  END
>  <Title>  (194) 
idAAFNgen14

$$$$

     RDKit          2D

  6  5  0  0  0  0  0  0  0  0999 V2000
    0.0000    0.0000    0.0000 C   0  0  0  0  0  0  0  0  0  0  0  0
    1.2990    0.7500    0.0000 C   0  0  0  0  0  0  0  0  0  0  0  0
    2.5981   -0.0000    0.0000 C   0  0  0  0  0  0  0  0  0  0  0  0
    3.8971    0.7500    0.0000 C   0  0  0  0  0  0  0  0  0  0  0  0
    2.5981   -1.5000    0.0000 C   0  0  0  0  0  0  0  0  0  0  0  0
    3.8971   -2.2500    0.0000 C   0  0  0  0  0  0  0  0  0  0  0  0
  1  2  1  0
  2  3  1  0
  3  4  1  0
  3  5  1  0
  5  6  1  0
M  END
>  <Title>  (195) 
idAAFOgen14

$$$$

     RDKit          2D

  7  6  0  0  0  0  0  0  0  0999 V2000
    0.0000    0.0000    0.0000 C   0  0  0  0  0  0  0  0  0  0  0  0
   -0.0000   -1.5000    0.0000 C   0  0  0  0  0  0  0  0  0  0  0  0
   -0.0000   -3.0000    0.0000 C   0  0  0  0  0  0  0  0  0  0  0  0
   -0.0000   -4.5000    0.0000 C   0  0  0  0  0  0  0  0  0  0  0  0
   -0.0000   -6.0000    0.0000 C   0  0  0  0  0  0  0  0  0  0  0  0
    1.2990   -6.7500    0.0000 C   0  0  0  0  0  0  0  0  0  0  0  0
   -1.2990   -6.7500    0.0000 N   0  0  0  0  0  0  0  0  0  0  0  0
  1  2  3  0
  2  3  1  0
  3  4  3  0
  4  5  1  0
  5  6  1  0
  5  7  1  0
M  END
>  <Title>  (196) 
idAAFPgen14

$$$$

     RDKit          2D

 37 41  0  0  0  0  0  0  0  0999 V2000
   10.5000    5.1962    0.0000 C   0  0  0  0  0  0  0  0  0  0  0  0
    9.7500    3.8971    0.0000 C   0  0  0  0  0  0  0  0  0  0  0  0
    8.2500    3.8971    0.0000 C   0  0  0  0  0  0  0  0  0  0  0  0
    7.5000    2.5981    0.0000 C   0  0  0  0  0  0  0  0  0  0  0  0
    8.2500    1.2990    0.0000 C   0  0  0  0  0  0  0  0  0  0  0  0
    7.5000    0.0000    0.0000 C   0  0  0  0  0  0  0  0  0  0  0  0
    6.0000    0.0000    0.0000 C   0  0  0  0  0  0  0  0  0  0  0  0
    5.2500   -1.2990    0.0000 O   0  0  0  0  0  0  0  0  0  0  0  0
    6.0000   -2.5981    0.0000 C   0  0  0  0  0  0  0  0  0  0  0  0
    7.5000   -2.5981    0.0000 O   0  0  0  0  0  0  0  0  0  0  0  0
    5.2500   -3.8971    0.0000 N   0  0  0  0  0  0  0  0  0  0  0  0
    6.0000   -5.1962    0.0000 C   0  0  0  0  0  0  0  0  0  0  0  0
    7.4918   -5.3529    0.0000 N   0  0  0  0  0  0  0  0  0  0  0  0
    7.8037   -6.8202    0.0000 N   0  0  0  0  0  0  0  0  0  0  0  0
    6.5046   -7.5702    0.0000 N   0  0  0  0  0  0  0  0  0  0  0  0
    5.3899   -6.5665    0.0000 N   0  0  0  0  0  0  0  0  0  0  0  0
    3.9227   -6.8783    0.0000 N   0  0  0  0  0  0  0  0  0  0  0  0
    2.9190   -5.7636    0.0000 C   0  0  0  0  0  0  0  0  0  0  0  0
    1.4518   -6.0755    0.0000 C   0  0  0  0  0  0  0  0  0  0  0  0
    0.9882   -7.5021    0.0000 N   0  0  0  0  0  0  0  0  0  0  0  0
   -0.4790   -7.8139    0.0000 C   0  0  0  0  0  0  0  0  0  0  0  0
   -1.4827   -6.6992    0.0000 O   0  0  0  0  0  0  0  0  0  0  0  0
   -0.9425   -9.2405    0.0000 N   0  0  0  0  0  0  0  0  0  0  0  0
   -2.4097   -9.5524    0.0000 C   0  0  0  0  0  0  0  0  0  0  0  0
   -3.4134   -8.4377    0.0000 N   0  0  0  0  0  0  0  0  0  0  0  0
   -4.8807   -8.7495    0.0000 N   0  0  0  0  0  0  0  0  0  0  0  0
   -5.3442  -10.1761    0.0000 N   0  0  0  0  0  0  0  0  0  0  0  0
   -4.3405  -11.2908    0.0000 N   0  0  0  0  0  0  0  0  0  0  0  0
   -2.8733  -10.9790    0.0000 N   0  0  0  0  0  0  0  0  0  0  0  0
    1.9919   -8.6168    0.0000 C   0  0  0  0  0  0  0  0  0  0  0  0
    3.4591   -8.3049    0.0000 N   0  0  0  0  0  0  0  0  0  0  0  0
    5.2500    1.2990    0.0000 C   0  0  0  0  0  0  0  0  0  0  0  0
    3.7500    1.2990    0.0000 C   0  0  0  0  0  0  0  0  0  0  0  0
    3.0000    2.5981    0.0000 C   0  0  0  0  0  0  0  0  0  0  0  0
    3.7500    3.8971    0.0000 C   0  0  0  0  0  0  0  0  0  0  0  0
    5.2500    3.8971    0.0000 C   0  0  0  0  0  0  0  0  0  0  0  0
    6.0000    2.5981    0.0000 C   0  0  0  0  0  0  0  0  0  0  0  0
  1  2  2  0
  2  3  1  0
  3  4  1  0
  4  5  2  0
  5  6  1  0
  6  7  2  0
  7  8  1  0
  8  9  1  0
  9 10  2  0
  9 11  1  0
 11 12  1  0
 12 13  2  0
 13 14  1  0
 14 15  2  0
 15 16  1  0
 16 17  1  0
 17 18  1  0
 18 19  1  0
 19 20  1  0
 20 21  1  0
 21 22  2  0
 21 23  1  0
 23 24  1  0
 24 25  2  0
 25 26  1  0
 26 27  2  0
 27 28  1  0
 28 29  2  0
 20 30  1  0
 30 31  2  0
  7 32  1  0
 32 33  2  0
 33 34  1  0
 34 35  2  0
 35 36  1  0
 36 37  2  0
 37  4  1  0
 16 12  1  0
 31 17  1  0
 37 32  1  0
 29 24  1  0
M  END
>  <Title>  (197) 
idAAFQgen14

$$$$

     RDKit          2D

 39 43  0  0  0  0  0  0  0  0999 V2000
   -7.5000   -5.1962    0.0000 C   0  0  0  0  0  0  0  0  0  0  0  0
   -6.0000   -5.1962    0.0000 C   0  0  0  0  0  0  0  0  0  0  0  0
   -5.2500   -3.8971    0.0000 C   0  0  0  0  0  0  0  0  0  0  0  0
   -3.7500   -3.8971    0.0000 C   0  0  0  0  0  0  0  0  0  0  0  0
   -3.0000   -5.1962    0.0000 O   0  0  0  0  0  0  0  0  0  0  0  0
   -3.0000   -2.5981    0.0000 N   0  0  0  0  0  0  0  0  0  0  0  0
   -1.5000   -2.5981    0.0000 C   0  0  0  0  0  0  0  0  0  0  0  0
   -0.7500   -3.8971    0.0000 C   0  0  0  0  0  0  0  0  0  0  0  0
    0.7500   -3.8971    0.0000 C   0  0  0  0  0  0  0  0  0  0  0  0
    1.5000   -2.5981    0.0000 C   0  0  0  0  0  0  0  0  0  0  0  0
    3.0000   -2.5981    0.0000 C   0  0  0  0  0  0  0  0  0  0  0  0
    3.7500   -1.2990    0.0000 O   0  0  0  0  0  0  0  0  0  0  0  0
    3.7500   -3.8971    0.0000 N   0  0  0  0  0  0  0  0  0  0  0  0
    5.2500   -3.8971    0.0000 C   0  0  0  0  0  0  0  0  0  0  0  0
    6.1317   -2.6836    0.0000 N   0  0  0  0  0  0  0  0  0  0  0  0
    7.5583   -3.1471    0.0000 N   0  0  0  0  0  0  0  0  0  0  0  0
    7.5583   -4.6471    0.0000 N   0  0  0  0  0  0  0  0  0  0  0  0
    6.1317   -5.1106    0.0000 N   0  0  0  0  0  0  0  0  0  0  0  0
    5.6682   -6.5372    0.0000 N   0  0  0  0  0  0  0  0  0  0  0  0
    6.5498   -7.7508    0.0000 C   0  0  0  0  0  0  0  0  0  0  0  0
    5.6682   -8.9643    0.0000 C   0  0  0  0  0  0  0  0  0  0  0  0
    4.2416   -8.5008    0.0000 N   0  0  0  0  0  0  0  0  0  0  0  0
    3.0280   -9.3824    0.0000 C   0  0  0  0  0  0  0  0  0  0  0  0
    3.1848  -10.8742    0.0000 O   0  0  0  0  0  0  0  0  0  0  0  0
    1.6577   -8.7723    0.0000 N   0  0  0  0  0  0  0  0  0  0  0  0
    0.4442   -9.6540    0.0000 C   0  0  0  0  0  0  0  0  0  0  0  0
   -0.9261   -9.0439    0.0000 N   0  0  0  0  0  0  0  0  0  0  0  0
   -2.1396   -9.9256    0.0000 N   0  0  0  0  0  0  0  0  0  0  0  0
   -1.9829  -11.4174    0.0000 N   0  0  0  0  0  0  0  0  0  0  0  0
   -0.6125  -12.0275    0.0000 N   0  0  0  0  0  0  0  0  0  0  0  0
    0.6010  -11.1458    0.0000 N   0  0  0  0  0  0  0  0  0  0  0  0
    4.2416   -7.0008    0.0000 C   0  0  0  0  0  0  0  0  0  0  0  0
    3.0280   -6.1191    0.0000 O   0  0  0  0  0  0  0  0  0  0  0  0
    0.7500   -1.2990    0.0000 C   0  0  0  0  0  0  0  0  0  0  0  0
    1.5000    0.0000    0.0000 C   0  0  0  0  0  0  0  0  0  0  0  0
    0.7500    1.2990    0.0000 C   0  0  0  0  0  0  0  0  0  0  0  0
   -0.7500    1.2990    0.0000 C   0  0  0  0  0  0  0  0  0  0  0  0
   -1.5000    0.0000    0.0000 C   0  0  0  0  0  0  0  0  0  0  0  0
   -0.7500   -1.2990    0.0000 C   0  0  0  0  0  0  0  0  0  0  0  0
  1  2  1  0
  2  3  1  0
  3  4  1  0
  4  5  2  0
  4  6  1  0
  6  7  1  0
  7  8  2  0
  8  9  1  0
  9 10  2  0
 10 11  1  0
 11 12  2  0
 11 13  1  0
 13 14  1  0
 14 15  2  0
 15 16  1  0
 16 17  2  0
 17 18  1  0
 18 19  1  0
 19 20  1  0
 20 21  1  0
 21 22  1  0
 22 23  1  0
 23 24  2  0
 23 25  1  0
 25 26  1  0
 26 27  2  0
 27 28  1  0
 28 29  2  0
 29 30  1  0
 30 31  2  0
 22 32  1  0
 32 33  2  0
 10 34  1  0
 34 35  2  0
 35 36  1  0
 36 37  2  0
 37 38  1  0
 38 39  2  0
 39  7  1  0
 18 14  1  0
 32 19  1  0
 39 34  1  0
 31 26  1  0
M  END
>  <Title>  (198) 
idAAFRgen14

$$$$

     RDKit          2D

 12 11  0  0  0  0  0  0  0  0999 V2000
    0.0000    0.0000    0.0000 C   0  0  0  0  0  0  0  0  0  0  0  0
    1.2990    0.7500    0.0000 C   0  0  0  0  0  0  0  0  0  0  0  0
    2.5981   -0.0000    0.0000 C   0  0  0  0  0  0  0  0  0  0  0  0
    3.8971    0.7500    0.0000 C   0  0  0  0  0  0  0  0  0  0  0  0
    5.1962   -0.0000    0.0000 C   0  0  0  0  0  0  0  0  0  0  0  0
    6.4952    0.7500    0.0000 C   0  0  0  0  0  0  0  0  0  0  0  0
    5.1962   -1.5000    0.0000 N   0  0  0  0  0  0  0  0  0  0  0  0
    6.4952   -2.2500    0.0000 C   0  0  0  0  0  0  0  0  0  0  0  0
    7.7942   -1.5000    0.0000 O   0  0  0  0  0  0  0  0  0  0  0  0
    6.4952   -3.7500    0.0000 C   0  0  0  0  0  0  0  0  0  0  0  0
    7.7942   -4.5000    0.0000 C   0  0  0  0  0  0  0  0  0  0  0  0
    7.7942   -6.0000    0.0000 C   0  0  0  0  0  0  0  0  0  0  0  0
  1  2  2  0
  2  3  1  0
  3  4  1  0
  4  5  1  0
  5  6  1  0
  5  7  1  0
  7  8  1  0
  8  9  2  0
  8 10  1  0
 10 11  1  0
 11 12  1  0
M  END
>  <Title>  (199) 
idAAFSgen14

$$$$

     RDKit          2D

  8  7  0  0  0  0  0  0  0  0999 V2000
    0.0000    0.0000    0.0000 C   0  0  0  0  0  0  0  0  0  0  0  0
    1.2990    0.7500    0.0000 C   0  0  0  0  0  0  0  0  0  0  0  0
    2.5981   -0.0000    0.0000 N   0  0  0  0  0  0  0  0  0  0  0  0
    2.5981   -1.5000    0.0000 C   0  0  0  0  0  0  0  0  0  0  0  0
    3.8971   -2.2500    0.0000 C   0  0  0  0  0  0  0  0  0  0  0  0
    3.8971   -3.7500    0.0000 C   0  0  0  0  0  0  0  0  0  0  0  0
    3.8971    0.7500    0.0000 C   0  0  0  0  0  0  0  0  0  0  0  0
    5.1962   -0.0000    0.0000 C   0  0  0  0  0  0  0  0  0  0  0  0
  1  2  2  0
  2  3  1  0
  3  4  1  0
  4  5  2  3
  5  6  1  0
  3  7  1  0
  7  8  1  0
M  END
>  <Title>  (200) 
idAAFTgen14

$$$$

     RDKit          2D

109110  0  0  0  0  0  0  0  0999 V2000
    3.4481    4.0405    0.0000 C   0  0  0  0  0  0  0  0  0  0  0  0
    4.2093    4.2772    0.0000 C   0  0  0  0  0  0  0  0  0  0  0  0
    3.8160    5.7247    0.0000 C   0  0  0  0  0  0  0  0  0  0  0  0
    3.5281    7.1968    0.0000 C   0  0  0  0  0  0  0  0  0  0  0  0
    3.3472    8.6859    0.0000 C   0  0  0  0  0  0  0  0  0  0  0  0
    3.2743   10.1841    0.0000 C   0  0  0  0  0  0  0  0  0  0  0  0
    3.3096   11.6837    0.0000 C   0  0  0  0  0  0  0  0  0  0  0  0
    3.4530   13.1768    0.0000 C   0  0  0  0  0  0  0  0  0  0  0  0
    3.7038   14.6557    0.0000 C   0  0  0  0  0  0  0  0  0  0  0  0
    4.0607   16.1126    0.0000 C   0  0  0  0  0  0  0  0  0  0  0  0
    4.5217   17.5400    0.0000 C   0  0  0  0  0  0  0  0  0  0  0  0
    5.0846   18.9304    0.0000 C   0  0  0  0  0  0  0  0  0  0  0  0
    5.7463   20.2766    0.0000 C   0  0  0  0  0  0  0  0  0  0  0  0
    6.5034   21.5715    0.0000 C   0  0  0  0  0  0  0  0  0  0  0  0
    7.3520   22.8083    0.0000 C   0  0  0  0  0  0  0  0  0  0  0  0
    8.2877   23.9808    0.0000 C   0  0  0  0  0  0  0  0  0  0  0  0
    9.3054   25.0826    0.0000 C   0  0  0  0  0  0  0  0  0  0  0  0
   10.4001   26.1082    0.0000 C   0  0  0  0  0  0  0  0  0  0  0  0
   11.5659   27.0521    0.0000 C   0  0  0  0  0  0  0  0  0  0  0  0
   12.7967   27.9094    0.0000 C   0  0  0  0  0  0  0  0  0  0  0  0
   14.0863   28.6756    0.0000 C   0  0  0  0  0  0  0  0  0  0  0  0
   15.4277   29.3469    0.0000 C   0  0  0  0  0  0  0  0  0  0  0  0
   16.8141   29.9195    0.0000 C   0  0  0  0  0  0  0  0  0  0  0  0
   18.2382   30.3907    0.0000 C   0  0  0  0  0  0  0  0  0  0  0  0
   19.6926   30.7578    0.0000 C   0  0  0  0  0  0  0  0  0  0  0  0
   21.1696   31.0190    0.0000 C   0  0  0  0  0  0  0  0  0  0  0  0
   22.6617   31.1730    0.0000 C   0  0  0  0  0  0  0  0  0  0  0  0
   24.1610   31.2189    0.0000 C   0  0  0  0  0  0  0  0  0  0  0  0
   25.6597   31.1566    0.0000 C   0  0  0  0  0  0  0  0  0  0  0  0
   27.1500   30.9862    0.0000 C   0  0  0  0  0  0  0  0  0  0  0  0
   28.6241   30.7087    0.0000 C   0  0  0  0  0  0  0  0  0  0  0  0
   30.0744   30.3256    0.0000 C   0  0  0  0  0  0  0  0  0  0  0  0
   31.4932   29.8389    0.0000 C   0  0  0  0  0  0  0  0  0  0  0  0
   32.8732   29.2510    0.0000 C   0  0  0  0  0  0  0  0  0  0  0  0
   34.2072   28.5651    0.0000 C   0  0  0  0  0  0  0  0  0  0  0  0
   35.4882   27.7847    0.0000 C   0  0  0  0  0  0  0  0  0  0  0  0
   36.7096   26.9139    0.0000 C   0  0  0  0  0  0  0  0  0  0  0  0
   37.8649   25.9573    0.0000 C   0  0  0  0  0  0  0  0  0  0  0  0
   38.9482   24.9197    0.0000 C   0  0  0  0  0  0  0  0  0  0  0  0
   39.9538   23.8068    0.0000 C   0  0  0  0  0  0  0  0  0  0  0  0
   40.8765   22.6241    0.0000 C   0  0  0  0  0  0  0  0  0  0  0  0
   41.7115   21.3780    0.0000 C   0  0  0  0  0  0  0  0  0  0  0  0
   42.4543   20.0748    0.0000 C   0  0  0  0  0  0  0  0  0  0  0  0
   43.1012   18.7215    0.0000 C   0  0  0  0  0  0  0  0  0  0  0  0
   43.6488   17.3250    0.0000 C   0  0  0  0  0  0  0  0  0  0  0  0
   44.0941   15.8926    0.0000 C   0  0  0  0  0  0  0  0  0  0  0  0
   44.4349   14.4319    0.0000 C   0  0  0  0  0  0  0  0  0  0  0  0
   44.6695   12.9503    0.0000 C   0  0  0  0  0  0  0  0  0  0  0  0
   44.7965   11.4557    0.0000 C   0  0  0  0  0  0  0  0  0  0  0  0
   44.8153    9.9558    0.0000 C   0  0  0  0  0  0  0  0  0  0  0  0
   44.7259    8.4585    0.0000 C   0  0  0  0  0  0  0  0  0  0  0  0
   44.5286    6.9715    0.0000 C   0  0  0  0  0  0  0  0  0  0  0  0
   44.2246    5.5027    0.0000 C   0  0  0  0  0  0  0  0  0  0  0  0
   43.8154    4.0596    0.0000 C   0  0  0  0  0  0  0  0  0  0  0  0
   43.3031    2.6498    0.0000 C   0  0  0  0  0  0  0  0  0  0  0  0
   42.6904    1.2806    0.0000 C   0  0  0  0  0  0  0  0  0  0  0  0
   41.9805   -0.0408    0.0000 C   0  0  0  0  0  0  0  0  0  0  0  0
   41.1771   -1.3075    0.0000 C   0  0  0  0  0  0  0  0  0  0  0  0
   40.2844   -2.5130    0.0000 C   0  0  0  0  0  0  0  0  0  0  0  0
   39.3071   -3.6509    0.0000 C   0  0  0  0  0  0  0  0  0  0  0  0
   38.2502   -4.7153    0.0000 C   0  0  0  0  0  0  0  0  0  0  0  0
   37.1192   -5.7006    0.0000 C   0  0  0  0  0  0  0  0  0  0  0  0
   35.9201   -6.6018    0.0000 C   0  0  0  0  0  0  0  0  0  0  0  0
   34.6591   -7.4141    0.0000 C   0  0  0  0  0  0  0  0  0  0  0  0
   33.3428   -8.1333    0.0000 C   0  0  0  0  0  0  0  0  0  0  0  0
   31.9780   -8.7557    0.0000 C   0  0  0  0  0  0  0  0  0  0  0  0
   30.5718   -9.2779    0.0000 C   0  0  0  0  0  0  0  0  0  0  0  0
   29.1316   -9.6973    0.0000 C   0  0  0  0  0  0  0  0  0  0  0  0
   27.6650  -10.0117    0.0000 C   0  0  0  0  0  0  0  0  0  0  0  0
   26.1794  -10.2195    0.0000 C   0  0  0  0  0  0  0  0  0  0  0  0
   24.6828  -10.3195    0.0000 C   0  0  0  0  0  0  0  0  0  0  0  0
   23.1828  -10.3112    0.0000 C   0  0  0  0  0  0  0  0  0  0  0  0
   21.6873  -10.1948    0.0000 C   0  0  0  0  0  0  0  0  0  0  0  0
   20.2041   -9.9707    0.0000 C   0  0  0  0  0  0  0  0  0  0  0  0
   18.7410   -9.6402    0.0000 C   0  0  0  0  0  0  0  0  0  0  0  0
   17.3055   -9.2050    0.0000 C   0  0  0  0  0  0  0  0  0  0  0  0
   15.9052   -8.6673    0.0000 C   0  0  0  0  0  0  0  0  0  0  0  0
   14.5473   -8.0300    0.0000 C   0  0  0  0  0  0  0  0  0  0  0  0
   13.2390   -7.2964    0.0000 C   0  0  0  0  0  0  0  0  0  0  0  0
   11.9869   -6.4703    0.0000 C   0  0  0  0  0  0  0  0  0  0  0  0
   10.7978   -5.5560    0.0000 C   0  0  0  0  0  0  0  0  0  0  0  0
    9.6778   -4.5582    0.0000 C   0  0  0  0  0  0  0  0  0  0  0  0
    8.6326   -3.4823    0.0000 C   0  0  0  0  0  0  0  0  0  0  0  0
    7.6678   -2.3337    0.0000 C   0  0  0  0  0  0  0  0  0  0  0  0
    6.7884   -1.1186    0.0000 C   0  0  0  0  0  0  0  0  0  0  0  0
    5.9990    0.1569    0.0000 C   0  0  0  0  0  0  0  0  0  0  0  0
    5.3037    1.4860    0.0000 C   0  0  0  0  0  0  0  0  0  0  0  0
    4.8080   -0.0000    0.0000 C   0  0  0  0  0  0  0  0  0  0  0  0
    4.6297   -1.2972    0.0000 C   0  0  0  0  0  0  0  0  0  0  0  0
    4.1080   -2.4981    0.0000 C   0  0  0  0  0  0  0  0  0  0  0  0
    3.2817   -3.5138    0.0000 C   0  0  0  0  0  0  0  0  0  0  0  0
    2.2120   -4.2689    0.0000 C   0  0  0  0  0  0  0  0  0  0  0  0
    0.9782   -4.7074    0.0000 C   0  0  0  0  0  0  0  0  0  0  0  0
   -0.3281   -4.7967    0.0000 C   0  0  0  0  0  0  0  0  0  0  0  0
   -1.6101   -4.5303    0.0000 C   0  0  0  0  0  0  0  0  0  0  0  0
   -2.7727   -3.9280    0.0000 C   0  0  0  0  0  0  0  0  0  0  0  0
   -3.7296   -3.0342    0.0000 C   0  0  0  0  0  0  0  0  0  0  0  0
   -4.4099   -1.9155    0.0000 C   0  0  0  0  0  0  0  0  0  0  0  0
   -4.7632   -0.6547    0.0000 C   0  0  0  0  0  0  0  0  0  0  0  0
   -4.7632    0.6547    0.0000 C   0  0  0  0  0  0  0  0  0  0  0  0
   -4.4099    1.9155    0.0000 C   0  0  0  0  0  0  0  0  0  0  0  0
   -3.7296    3.0342    0.0000 C   0  0  0  0  0  0  0  0  0  0  0  0
   -2.7727    3.9280    0.0000 C   0  0  0  0  0  0  0  0  0  0  0  0
   -1.6101    4.5303    0.0000 C   0  0  0  0  0  0  0  0  0  0  0  0
   -0.3281    4.7967    0.0000 C   0  0  0  0  0  0  0  0  0  0  0  0
    0.9782    4.7074    0.0000 C   0  0  0  0  0  0  0  0  0  0  0  0
    2.2120    4.2689    0.0000 C   0  0  0  0  0  0  0  0  0  0  0  0
    3.2817    3.5138    0.0000 C   0  0  0  0  0  0  0  0  0  0  0  0
    4.7061    2.8618    0.0000 C   0  0  0  0  0  0  0  0  0  0  0  0
  1  2  1  0
  2  3  1  0
  3  4  1  0
  4  5  1  0
  5  6  1  0
  6  7  1  0
  7  8  1  0
  8  9  1  0
  9 10  1  0
 10 11  1  0
 11 12  1  0
 12 13  1  0
 13 14  1  0
 14 15  1  0
 15 16  1  0
 16 17  1  0
 17 18  1  0
 18 19  1  0
 19 20  1  0
 20 21  1  0
 21 22  1  0
 22 23  1  0
 23 24  1  0
 24 25  1  0
 25 26  1  0
 26 27  1  0
 27 28  1  0
 28 29  1  0
 29 30  1  0
 30 31  1  0
 31 32  1  0
 32 33  1  0
 33 34  1  0
 34 35  1  0
 35 36  1  0
 36 37  1  0
 37 38  1  0
 38 39  1  0
 39 40  1  0
 40 41  1  0
 41 42  1  0
 42 43  1  0
 43 44  1  0
 44 45  1  0
 45 46  1  0
 46 47  1  0
 47 48  1  0
 48 49  1  0
 49 50  1  0
 50 51  1  0
 51 52  1  0
 52 53  1  0
 53 54  1  0
 54 55  1  0
 55 56  1  0
 56 57  1  0
 57 58  1  0
 58 59  1  0
 59 60  1  0
 60 61  1  0
 61 62  1  0
 62 63  1  0
 63 64  1  0
 64 65  1  0
 65 66  1  0
 66 67  1  0
 67 68  1  0
 68 69  1  0
 69 70  1  0
 70 71  1  0
 71 72  1  0
 72 73  1  0
 73 74  1  0
 74 75  1  0
 75 76  1  0
 76 77  1  0
 77 78  1  0
 78 79  1  0
 79 80  1  0
 80 81  1  0
 81 82  1  0
 82 83  1  0
 83 84  1  0
 84 85  1  0
 85 86  1  0
 86 87  1  0
 87 88  1  0
 88 89  1  0
 89 90  1  0
 90 91  1  0
 91 92  1  0
 92 93  1  0
 93 94  1  0
 94 95  1  0
 95 96  1  0
 96 97  1  0
 97 98  1  0
 98 99  1  0
 99100  1  0
100101  2  0
101102  1  0
102103  2  0
103104  1  0
104105  2  0
105106  1  0
106107  2  0
107108  1  0
108109  2  0
109  2  1  0
109 87  1  0
M  END
>  <Title>  (201) 
idAAFUgen14

$$$$

     RDKit          2D

 35 39  0  0  0  0  0  0  0  0999 V2000
   -3.0000   -5.1962    0.0000 O   0  0  0  0  0  0  0  0  0  0  0  0
   -3.7500   -3.8971    0.0000 C   0  0  0  0  0  0  0  0  0  0  0  0
   -5.2500   -3.8971    0.0000 C   0  0  0  0  0  0  0  0  0  0  0  0
   -6.0000   -5.1962    0.0000 C   0  0  0  0  0  0  0  0  0  0  0  0
   -7.5000   -5.1962    0.0000 C   0  0  0  0  0  0  0  0  0  0  0  0
   -8.3817   -6.4097    0.0000 N   0  0  0  0  0  0  0  0  0  0  0  0
   -9.8083   -5.9462    0.0000 N   0  0  0  0  0  0  0  0  0  0  0  0
   -9.8083   -4.4462    0.0000 N   0  0  0  0  0  0  0  0  0  0  0  0
   -8.3817   -3.9826    0.0000 N   0  0  0  0  0  0  0  0  0  0  0  0
   -7.9182   -2.5560    0.0000 N   0  0  0  0  0  0  0  0  0  0  0  0
   -8.7998   -1.3425    0.0000 C   0  0  0  0  0  0  0  0  0  0  0  0
   -7.9182   -0.1290    0.0000 C   0  0  0  0  0  0  0  0  0  0  0  0
   -6.4916   -0.5925    0.0000 N   0  0  0  0  0  0  0  0  0  0  0  0
   -5.2780    0.2892    0.0000 C   0  0  0  0  0  0  0  0  0  0  0  0
   -3.9077   -0.3209    0.0000 O   0  0  0  0  0  0  0  0  0  0  0  0
   -5.4348    1.7809    0.0000 N   0  0  0  0  0  0  0  0  0  0  0  0
   -4.2213    2.6626    0.0000 C   0  0  0  0  0  0  0  0  0  0  0  0
   -2.8510    2.0525    0.0000 N   0  0  0  0  0  0  0  0  0  0  0  0
   -1.6375    2.9342    0.0000 N   0  0  0  0  0  0  0  0  0  0  0  0
   -1.7943    4.4260    0.0000 N   0  0  0  0  0  0  0  0  0  0  0  0
   -3.1646    5.0361    0.0000 N   0  0  0  0  0  0  0  0  0  0  0  0
   -4.3781    4.1544    0.0000 N   0  0  0  0  0  0  0  0  0  0  0  0
   -6.4916   -2.0925    0.0000 C   0  0  0  0  0  0  0  0  0  0  0  0
   -5.2780   -2.9742    0.0000 O   0  0  0  0  0  0  0  0  0  0  0  0
   -3.0000   -2.5981    0.0000 N   0  0  0  0  0  0  0  0  0  0  0  0
   -1.5000   -2.5981    0.0000 C   0  0  0  0  0  0  0  0  0  0  0  0
   -0.7500   -3.8971    0.0000 C   0  0  0  0  0  0  0  0  0  0  0  0
    0.7500   -3.8971    0.0000 C   0  0  0  0  0  0  0  0  0  0  0  0
    1.5000   -2.5981    0.0000 C   0  0  0  0  0  0  0  0  0  0  0  0
    0.7500   -1.2990    0.0000 C   0  0  0  0  0  0  0  0  0  0  0  0
    1.5000    0.0000    0.0000 C   0  0  0  0  0  0  0  0  0  0  0  0
    0.7500    1.2990    0.0000 C   0  0  0  0  0  0  0  0  0  0  0  0
   -0.7500    1.2990    0.0000 C   0  0  0  0  0  0  0  0  0  0  0  0
   -1.5000    0.0000    0.0000 C   0  0  0  0  0  0  0  0  0  0  0  0
   -0.7500   -1.2990    0.0000 C   0  0  0  0  0  0  0  0  0  0  0  0
  1  2  2  0
  2  3  1  0
  3  4  1  0
  4  5  1  0
  5  6  2  0
  6  7  1  0
  7  8  2  0
  8  9  1  0
  9 10  1  0
 10 11  1  0
 11 12  1  0
 12 13  1  0
 13 14  1  0
 14 15  2  0
 14 16  1  0
 16 17  1  0
 17 18  2  0
 18 19  1  0
 19 20  2  0
 20 21  1  0
 21 22  2  0
 13 23  1  0
 23 24  2  0
  2 25  1  0
 25 26  1  0
 26 27  1  0
 27 28  1  0
 28 29  2  0
 29 30  1  0
 30 31  2  0
 31 32  1  0
 32 33  2  0
 33 34  1  0
 34 35  2  0
  9  5  1  0
 23 10  1  0
 35 26  1  0
 22 17  1  0
 35 30  1  0
M  END
>  <Title>  (202) 
idAAFVgen14

$$$$

     RDKit          2D

 16 16  0  0  0  0  0  0  0  0999 V2000
    5.2500   -6.4952    0.0000 C   0  0  0  0  0  0  0  0  0  0  0  0
    6.0000   -5.1962    0.0000 C   0  0  0  0  0  0  0  0  0  0  0  0
    7.5000   -5.1962    0.0000 C   0  0  0  0  0  0  0  0  0  0  0  0
    5.2500   -3.8971    0.0000 C   0  0  0  0  0  0  0  0  0  0  0  0
    6.0000   -2.5981    0.0000 C   0  0  0  0  0  0  0  0  0  0  0  0
    7.5000   -2.5981    0.0000 C   0  0  0  0  0  0  0  0  0  0  0  0
    5.2500   -1.2990    0.0000 N   0  0  0  0  0  0  0  0  0  0  0  0
    3.7500   -1.2990    0.0000 C   0  0  0  0  0  0  0  0  0  0  0  0
    3.0000   -2.5981    0.0000 O   0  0  0  0  0  0  0  0  0  0  0  0
    3.0000    0.0000    0.0000 C   0  0  0  0  0  0  0  0  0  0  0  0
    1.5000    0.0000    0.0000 C   0  0  0  0  0  0  0  0  0  0  0  0
    0.7500   -1.2990    0.0000 C   0  0  0  0  0  0  0  0  0  0  0  0
   -0.7500   -1.2990    0.0000 C   0  0  0  0  0  0  0  0  0  0  0  0
   -1.5000    0.0000    0.0000 C   0  0  0  0  0  0  0  0  0  0  0  0
   -0.7500    1.2990    0.0000 C   0  0  0  0  0  0  0  0  0  0  0  0
    0.7500    1.2990    0.0000 C   0  0  0  0  0  0  0  0  0  0  0  0
  1  2  1  0
  2  3  1  0
  2  4  1  0
  4  5  1  0
  5  6  1  0
  5  7  1  0
  7  8  1  0
  8  9  2  0
  8 10  1  0
 10 11  1  0
 11 12  2  0
 12 13  1  0
 13 14  2  0
 14 15  1  0
 15 16  2  0
 16 11  1  0
M  END
>  <Title>  (203) 
idAAFWgen14

$$$$

     RDKit          2D

 39 43  0  0  0  0  0  0  0  0999 V2000
   -8.1129   -3.6696    0.0000 C   0  0  0  0  0  0  0  0  0  0  0  0
   -6.6505   -4.0034    0.0000 C   0  0  0  0  0  0  0  0  0  0  0  0
   -5.6303   -2.9038    0.0000 C   0  0  0  0  0  0  0  0  0  0  0  0
   -4.1679   -3.2376    0.0000 N   0  0  0  0  0  0  0  0  0  0  0  0
   -3.1476   -2.1380    0.0000 C   0  0  0  0  0  0  0  0  0  0  0  0
   -1.6852   -2.4718    0.0000 C   0  0  0  0  0  0  0  0  0  0  0  0
   -1.3515   -3.9342    0.0000 C   0  0  0  0  0  0  0  0  0  0  0  0
   -0.0000   -4.5850    0.0000 C   0  0  0  0  0  0  0  0  0  0  0  0
    1.3515   -3.9342    0.0000 C   0  0  0  0  0  0  0  0  0  0  0  0
    1.6852   -2.4718    0.0000 C   0  0  0  0  0  0  0  0  0  0  0  0
    3.1476   -2.1380    0.0000 C   0  0  0  0  0  0  0  0  0  0  0  0
    3.5898   -0.7046    0.0000 O   0  0  0  0  0  0  0  0  0  0  0  0
    4.1679   -3.2376    0.0000 N   0  0  0  0  0  0  0  0  0  0  0  0
    5.6303   -2.9038    0.0000 C   0  0  0  0  0  0  0  0  0  0  0  0
    6.2198   -1.5245    0.0000 N   0  0  0  0  0  0  0  0  0  0  0  0
    7.7138   -1.6590    0.0000 N   0  0  0  0  0  0  0  0  0  0  0  0
    8.0476   -3.1214    0.0000 N   0  0  0  0  0  0  0  0  0  0  0  0
    6.7599   -3.8907    0.0000 N   0  0  0  0  0  0  0  0  0  0  0  0
    6.6254   -5.3847    0.0000 N   0  0  0  0  0  0  0  0  0  0  0  0
    7.7550   -6.3716    0.0000 C   0  0  0  0  0  0  0  0  0  0  0  0
    7.1655   -7.7509    0.0000 C   0  0  0  0  0  0  0  0  0  0  0  0
    5.6715   -7.6164    0.0000 N   0  0  0  0  0  0  0  0  0  0  0  0
    4.6846   -8.7460    0.0000 C   0  0  0  0  0  0  0  0  0  0  0  0
    5.1694  -10.1655    0.0000 O   0  0  0  0  0  0  0  0  0  0  0  0
    3.2129   -8.4561    0.0000 N   0  0  0  0  0  0  0  0  0  0  0  0
    2.2260   -9.5857    0.0000 C   0  0  0  0  0  0  0  0  0  0  0  0
    0.7543   -9.2959    0.0000 N   0  0  0  0  0  0  0  0  0  0  0  0
   -0.2326  -10.4255    0.0000 N   0  0  0  0  0  0  0  0  0  0  0  0
    0.2522  -11.8450    0.0000 N   0  0  0  0  0  0  0  0  0  0  0  0
    1.7239  -12.1348    0.0000 N   0  0  0  0  0  0  0  0  0  0  0  0
    2.7108  -11.0052    0.0000 N   0  0  0  0  0  0  0  0  0  0  0  0
    5.3378   -6.1540    0.0000 C   0  0  0  0  0  0  0  0  0  0  0  0
    3.9585   -5.5645    0.0000 O   0  0  0  0  0  0  0  0  0  0  0  0
    0.7500   -1.2990    0.0000 C   0  0  0  0  0  0  0  0  0  0  0  0
    1.5000    0.0000    0.0000 C   0  0  0  0  0  0  0  0  0  0  0  0
    0.7500    1.2990    0.0000 C   0  0  0  0  0  0  0  0  0  0  0  0
   -0.7500    1.2990    0.0000 C   0  0  0  0  0  0  0  0  0  0  0  0
   -1.5000    0.0000    0.0000 C   0  0  0  0  0  0  0  0  0  0  0  0
   -0.7500   -1.2990    0.0000 C   0  0  0  0  0  0  0  0  0  0  0  0
  1  2  1  0
  2  3  2  3
  3  4  1  0
  4  5  1  0
  5  6  1  0
  6  7  2  0
  7  8  1  0
  8  9  1  0
  9 10  1  0
 10 11  1  0
 11 12  2  0
 11 13  1  0
 13 14  1  0
 14 15  2  0
 15 16  1  0
 16 17  2  0
 17 18  1  0
 18 19  1  0
 19 20  1  0
 20 21  1  0
 21 22  1  0
 22 23  1  0
 23 24  2  0
 23 25  1  0
 25 26  1  0
 26 27  2  0
 27 28  1  0
 28 29  2  0
 29 30  1  0
 30 31  2  0
 22 32  1  0
 32 33  2  0
 10 34  1  0
 34 35  2  0
 35 36  1  0
 36 37  2  0
 37 38  1  0
 38 39  2  0
 39  6  1  0
 18 14  1  0
 32 19  1  0
 39 34  1  0
 31 26  1  0
M  END
>  <Title>  (204) 
idAAFXgen14

$$$$

     RDKit          2D

 10 10  0  0  0  0  0  0  0  0999 V2000
    5.7760   -2.5981    0.0000 C   0  0  0  0  0  0  0  0  0  0  0  0
    5.0260   -1.2990    0.0000 C   0  0  0  0  0  0  0  0  0  0  0  0
    5.7760    0.0000    0.0000 C   0  0  0  0  0  0  0  0  0  0  0  0
    3.5260   -1.2990    0.0000 C   0  0  0  0  0  0  0  0  0  0  0  0
    2.7760    0.0000    0.0000 C   0  0  0  0  0  0  0  0  0  0  0  0
    1.2760    0.0000    0.0000 N   0  0  0  0  0  0  0  0  0  0  0  0
    0.3943    1.2135    0.0000 C   0  0  0  0  0  0  0  0  0  0  0  0
   -1.0323    0.7500    0.0000 C   0  0  0  0  0  0  0  0  0  0  0  0
   -1.0323   -0.7500    0.0000 C   0  0  0  0  0  0  0  0  0  0  0  0
    0.3943   -1.2135    0.0000 C   0  0  0  0  0  0  0  0  0  0  0  0
  1  2  1  0
  2  3  1  0
  2  4  1  0
  4  5  1  0
  5  6  1  0
  6  7  1  0
  7  8  2  0
  8  9  1  0
  9 10  2  0
 10  6  1  0
M  END
>  <Title>  (205) 
idAAFYgen14

$$$$

     RDKit          2D

 37 41  0  0  0  0  0  0  0  0999 V2000
   11.2500    3.8971    0.0000 N   0  0  0  0  0  0  0  0  0  0  0  0
    9.7500    3.8971    0.0000 C   0  0  0  0  0  0  0  0  0  0  0  0
    8.2500    3.8971    0.0000 C   0  0  0  0  0  0  0  0  0  0  0  0
    7.5000    2.5981    0.0000 C   0  0  0  0  0  0  0  0  0  0  0  0
    8.2500    1.2990    0.0000 C   0  0  0  0  0  0  0  0  0  0  0  0
    7.5000    0.0000    0.0000 C   0  0  0  0  0  0  0  0  0  0  0  0
    6.0000    0.0000    0.0000 C   0  0  0  0  0  0  0  0  0  0  0  0
    5.2500   -1.2990    0.0000 O   0  0  0  0  0  0  0  0  0  0  0  0
    6.0000   -2.5981    0.0000 C   0  0  0  0  0  0  0  0  0  0  0  0
    7.5000   -2.5981    0.0000 O   0  0  0  0  0  0  0  0  0  0  0  0
    5.2500   -3.8971    0.0000 O   0  0  0  0  0  0  0  0  0  0  0  0
    6.0000   -5.1962    0.0000 C   0  0  0  0  0  0  0  0  0  0  0  0
    7.4918   -5.3529    0.0000 N   0  0  0  0  0  0  0  0  0  0  0  0
    7.8037   -6.8202    0.0000 N   0  0  0  0  0  0  0  0  0  0  0  0
    6.5046   -7.5702    0.0000 N   0  0  0  0  0  0  0  0  0  0  0  0
    5.3899   -6.5665    0.0000 N   0  0  0  0  0  0  0  0  0  0  0  0
    3.9227   -6.8783    0.0000 N   0  0  0  0  0  0  0  0  0  0  0  0
    2.8080   -5.8746    0.0000 C   0  0  0  0  0  0  0  0  0  0  0  0
    1.5089   -6.6246    0.0000 C   0  0  0  0  0  0  0  0  0  0  0  0
    1.8208   -8.0919    0.0000 N   0  0  0  0  0  0  0  0  0  0  0  0
    0.8171   -9.2066    0.0000 C   0  0  0  0  0  0  0  0  0  0  0  0
    1.2806  -10.6332    0.0000 O   0  0  0  0  0  0  0  0  0  0  0  0
   -0.6501   -8.8947    0.0000 N   0  0  0  0  0  0  0  0  0  0  0  0
   -1.1137   -7.4681    0.0000 C   0  0  0  0  0  0  0  0  0  0  0  0
   -2.5809   -7.1563    0.0000 N   0  0  0  0  0  0  0  0  0  0  0  0
   -3.0444   -5.7297    0.0000 N   0  0  0  0  0  0  0  0  0  0  0  0
   -2.0407   -4.6150    0.0000 N   0  0  0  0  0  0  0  0  0  0  0  0
   -0.5735   -4.9268    0.0000 N   0  0  0  0  0  0  0  0  0  0  0  0
   -0.1100   -6.3534    0.0000 N   0  0  0  0  0  0  0  0  0  0  0  0
    3.3126   -8.2487    0.0000 C   0  0  0  0  0  0  0  0  0  0  0  0
    4.0626   -9.5477    0.0000 O   0  0  0  0  0  0  0  0  0  0  0  0
    5.2500    1.2990    0.0000 C   0  0  0  0  0  0  0  0  0  0  0  0
    3.7500    1.2990    0.0000 C   0  0  0  0  0  0  0  0  0  0  0  0
    3.0000    2.5981    0.0000 C   0  0  0  0  0  0  0  0  0  0  0  0
    3.7500    3.8971    0.0000 C   0  0  0  0  0  0  0  0  0  0  0  0
    5.2500    3.8971    0.0000 C   0  0  0  0  0  0  0  0  0  0  0  0
    6.0000    2.5981    0.0000 C   0  0  0  0  0  0  0  0  0  0  0  0
  1  2  3  0
  2  3  1  0
  3  4  1  0
  4  5  2  0
  5  6  1  0
  6  7  2  0
  7  8  1  0
  8  9  1  0
  9 10  2  0
  9 11  1  0
 11 12  1  0
 12 13  2  0
 13 14  1  0
 14 15  2  0
 15 16  1  0
 16 17  1  0
 17 18  1  0
 18 19  1  0
 19 20  1  0
 20 21  1  0
 21 22  2  0
 21 23  1  0
 23 24  1  0
 24 25  2  0
 25 26  1  0
 26 27  2  0
 27 28  1  0
 28 29  2  0
 20 30  1  0
 30 31  2  0
  7 32  1  0
 32 33  2  0
 33 34  1  0
 34 35  2  0
 35 36  1  0
 36 37  2  0
 37  4  1  0
 16 12  1  0
 30 17  1  0
 37 32  1  0
 29 24  1  0
M  END
>  <Title>  (206) 
idAAFZgen14

$$$$

     RDKit          2D

 85 86  0  0  0  0  0  0  0  0999 V2000
   -2.1957   -1.0723    0.0000 C   0  0  0  0  0  0  0  0  0  0  0  0
   -2.4905    0.3984    0.0000 C   0  0  0  0  0  0  0  0  0  0  0  0
   -3.9716    0.1609    0.0000 C   0  0  0  0  0  0  0  0  0  0  0  0
   -5.4666    0.0389    0.0000 C   0  0  0  0  0  0  0  0  0  0  0  0
   -6.9666    0.0330    0.0000 C   0  0  0  0  0  0  0  0  0  0  0  0
   -8.4625    0.1435    0.0000 C   0  0  0  0  0  0  0  0  0  0  0  0
   -9.9454    0.3695    0.0000 C   0  0  0  0  0  0  0  0  0  0  0  0
  -11.4063    0.7098    0.0000 C   0  0  0  0  0  0  0  0  0  0  0  0
  -12.8364    1.1622    0.0000 C   0  0  0  0  0  0  0  0  0  0  0  0
  -14.2272    1.7241    0.0000 C   0  0  0  0  0  0  0  0  0  0  0  0
  -15.5703    2.3921    0.0000 C   0  0  0  0  0  0  0  0  0  0  0  0
  -16.8575    3.1622    0.0000 C   0  0  0  0  0  0  0  0  0  0  0  0
  -18.0812    4.0297    0.0000 C   0  0  0  0  0  0  0  0  0  0  0  0
  -19.2340    4.9894    0.0000 C   0  0  0  0  0  0  0  0  0  0  0  0
  -20.3090    6.0356    0.0000 C   0  0  0  0  0  0  0  0  0  0  0  0
  -21.2996    7.1619    0.0000 C   0  0  0  0  0  0  0  0  0  0  0  0
  -22.2000    8.3616    0.0000 C   0  0  0  0  0  0  0  0  0  0  0  0
  -23.0047    9.6274    0.0000 C   0  0  0  0  0  0  0  0  0  0  0  0
  -23.7089   10.9519    0.0000 C   0  0  0  0  0  0  0  0  0  0  0  0
  -24.3084   12.3269    0.0000 C   0  0  0  0  0  0  0  0  0  0  0  0
  -24.7995   13.7442    0.0000 C   0  0  0  0  0  0  0  0  0  0  0  0
  -25.1793   15.1953    0.0000 C   0  0  0  0  0  0  0  0  0  0  0  0
  -25.4455   16.6715    0.0000 C   0  0  0  0  0  0  0  0  0  0  0  0
  -25.5965   18.1639    0.0000 C   0  0  0  0  0  0  0  0  0  0  0  0
  -25.6314   19.6635    0.0000 C   0  0  0  0  0  0  0  0  0  0  0  0
  -25.5500   21.1613    0.0000 C   0  0  0  0  0  0  0  0  0  0  0  0
  -25.3528   22.6483    0.0000 C   0  0  0  0  0  0  0  0  0  0  0  0
  -25.0409   24.1155    0.0000 C   0  0  0  0  0  0  0  0  0  0  0  0
  -24.6163   25.5541    0.0000 C   0  0  0  0  0  0  0  0  0  0  0  0
  -24.0814   26.9555    0.0000 C   0  0  0  0  0  0  0  0  0  0  0  0
  -23.4396   28.3113    0.0000 C   0  0  0  0  0  0  0  0  0  0  0  0
  -22.6947   29.6132    0.0000 C   0  0  0  0  0  0  0  0  0  0  0  0
  -21.8510   30.8535    0.0000 C   0  0  0  0  0  0  0  0  0  0  0  0
  -20.9139   32.0247    0.0000 C   0  0  0  0  0  0  0  0  0  0  0  0
  -19.8887   33.1197    0.0000 C   0  0  0  0  0  0  0  0  0  0  0  0
  -18.7818   34.1321    0.0000 C   0  0  0  0  0  0  0  0  0  0  0  0
  -17.5998   35.0556    0.0000 C   0  0  0  0  0  0  0  0  0  0  0  0
  -16.3498   35.8847    0.0000 C   0  0  0  0  0  0  0  0  0  0  0  0
  -15.0393   36.6144    0.0000 C   0  0  0  0  0  0  0  0  0  0  0  0
  -13.6762   37.2404    0.0000 C   0  0  0  0  0  0  0  0  0  0  0  0
  -12.2686   37.7589    0.0000 C   0  0  0  0  0  0  0  0  0  0  0  0
  -10.8251   38.1668    0.0000 C   0  0  0  0  0  0  0  0  0  0  0  0
   -9.3544   38.4616    0.0000 C   0  0  0  0  0  0  0  0  0  0  0  0
   -7.8652   38.6415    0.0000 C   0  0  0  0  0  0  0  0  0  0  0  0
   -6.3666   38.7055    0.0000 C   0  0  0  0  0  0  0  0  0  0  0  0
   -4.8675   38.6531    0.0000 C   0  0  0  0  0  0  0  0  0  0  0  0
   -3.3770   38.4847    0.0000 C   0  0  0  0  0  0  0  0  0  0  0  0
   -1.9040   38.2014    0.0000 C   0  0  0  0  0  0  0  0  0  0  0  0
   -0.4574   37.8047    0.0000 C   0  0  0  0  0  0  0  0  0  0  0  0
    0.9541   37.2972    0.0000 C   0  0  0  0  0  0  0  0  0  0  0  0
    2.3221   36.6818    0.0000 C   0  0  0  0  0  0  0  0  0  0  0  0
    3.6382   35.9622    0.0000 C   0  0  0  0  0  0  0  0  0  0  0  0
    4.8946   35.1428    0.0000 C   0  0  0  0  0  0  0  0  0  0  0  0
    6.0838   34.2285    0.0000 C   0  0  0  0  0  0  0  0  0  0  0  0
    7.1985   33.2248    0.0000 C   0  0  0  0  0  0  0  0  0  0  0  0
    8.2321   32.1377    0.0000 C   0  0  0  0  0  0  0  0  0  0  0  0
    9.1783   30.9739    0.0000 C   0  0  0  0  0  0  0  0  0  0  0  0
   10.0315   29.7402    0.0000 C   0  0  0  0  0  0  0  0  0  0  0  0
   10.7866   28.4440    0.0000 C   0  0  0  0  0  0  0  0  0  0  0  0
   11.4389   27.0933    0.0000 C   0  0  0  0  0  0  0  0  0  0  0  0
   11.9846   25.6961    0.0000 C   0  0  0  0  0  0  0  0  0  0  0  0
   12.4204   24.2608    0.0000 C   0  0  0  0  0  0  0  0  0  0  0  0
   12.7436   22.7960    0.0000 C   0  0  0  0  0  0  0  0  0  0  0  0
   12.9524   21.3106    0.0000 C   0  0  0  0  0  0  0  0  0  0  0  0
   13.0454   19.8135    0.0000 C   0  0  0  0  0  0  0  0  0  0  0  0
   13.0221   18.3137    0.0000 C   0  0  0  0  0  0  0  0  0  0  0  0
   12.8827   16.8202    0.0000 C   0  0  0  0  0  0  0  0  0  0  0  0
   12.6279   15.3420    0.0000 C   0  0  0  0  0  0  0  0  0  0  0  0
   12.2594   13.8879    0.0000 C   0  0  0  0  0  0  0  0  0  0  0  0
   11.7793   12.4668    0.0000 C   0  0  0  0  0  0  0  0  0  0  0  0
   11.1906   11.0872    0.0000 C   0  0  0  0  0  0  0  0  0  0  0  0
   10.4966    9.7574    0.0000 C   0  0  0  0  0  0  0  0  0  0  0  0
    9.7018    8.4853    0.0000 C   0  0  0  0  0  0  0  0  0  0  0  0
    8.8107    7.2787    0.0000 C   0  0  0  0  0  0  0  0  0  0  0  0
    7.8288    6.1447    0.0000 C   0  0  0  0  0  0  0  0  0  0  0  0
    6.7620    5.0902    0.0000 C   0  0  0  0  0  0  0  0  0  0  0  0
    5.6167    4.1216    0.0000 C   0  0  0  0  0  0  0  0  0  0  0  0
    4.3997    3.2446    0.0000 C   0  0  0  0  0  0  0  0  0  0  0  0
    3.1185    2.4646    0.0000 C   0  0  0  0  0  0  0  0  0  0  0  0
    1.7807    1.7862    0.0000 C   0  0  0  0  0  0  0  0  0  0  0  0
    0.3943    1.2135    0.0000 C   0  0  0  0  0  0  0  0  0  0  0  0
    1.2760    0.0000    0.0000 C   0  0  0  0  0  0  0  0  0  0  0  0
    0.3943   -1.2135    0.0000 C   0  0  0  0  0  0  0  0  0  0  0  0
   -1.0323   -0.7500    0.0000 C   0  0  0  0  0  0  0  0  0  0  0  0
   -1.0323    0.7500    0.0000 C   0  0  0  0  0  0  0  0  0  0  0  0
  1  2  1  0
  2  3  1  0
  3  4  1  0
  4  5  1  0
  5  6  1  0
  6  7  1  0
  7  8  1  0
  8  9  1  0
  9 10  1  0
 10 11  1  0
 11 12  1  0
 12 13  1  0
 13 14  1  0
 14 15  1  0
 15 16  1  0
 16 17  1  0
 17 18  1  0
 18 19  1  0
 19 20  1  0
 20 21  1  0
 21 22  1  0
 22 23  1  0
 23 24  1  0
 24 25  1  0
 25 26  1  0
 26 27  1  0
 27 28  1  0
 28 29  1  0
 29 30  1  0
 30 31  1  0
 31 32  1  0
 32 33  1  0
 33 34  1  0
 34 35  1  0
 35 36  1  0
 36 37  1  0
 37 38  1  0
 38 39  1  0
 39 40  1  0
 40 41  1  0
 41 42  1  0
 42 43  1  0
 43 44  1  0
 44 45  1  0
 45 46  1  0
 46 47  1  0
 47 48  1  0
 48 49  1  0
 49 50  1  0
 50 51  1  0
 51 52  1  0
 52 53  1  0
 53 54  1  0
 54 55  1  0
 55 56  1  0
 56 57  1  0
 57 58  1  0
 58 59  2  0
 59 60  1  0
 60 61  2  0
 61 62  1  0
 62 63  2  0
 63 64  1  0
 64 65  2  0
 65 66  1  0
 66 67  2  0
 67 68  1  0
 68 69  2  0
 69 70  1  0
 70 71  2  0
 71 72  1  0
 72 73  2  0
 73 74  1  0
 74 75  2  0
 75 76  1  0
 76 77  2  0
 77 78  1  0
 78 79  2  0
 79 80  1  0
 80 81  2  0
 81 82  1  0
 82 83  2  0
 83 84  1  0
 84 85  2  0
 85  2  1  0
 85 81  1  0
M  END
>  <Title>  (207) 
idAAGAgen14

$$$$

     RDKit          2D

  6  5  0  0  0  0  0  0  0  0999 V2000
    0.0000    0.0000    0.0000 C   0  0  0  0  0  0  0  0  0  0  0  0
   -0.0000   -1.5000    0.0000 C   0  0  0  0  0  0  0  0  0  0  0  0
   -0.0000   -3.0000    0.0000 N   0  0  0  0  0  0  0  0  0  0  0  0
    1.2990   -3.7500    0.0000 C   0  0  0  0  0  0  0  0  0  0  0  0
    1.2990   -5.2500    0.0000 C   0  0  0  0  0  0  0  0  0  0  0  0
    2.5981   -6.0000    0.0000 C   0  0  0  0  0  0  0  0  0  0  0  0
  1  2  3  0
  2  3  1  0
  3  4  1  0
  4  5  2  3
  5  6  1  0
M  END
>  <Title>  (208) 
idAAGBgen14

$$$$

     RDKit          2D

 15 14  0  0  0  0  0  0  0  0999 V2000
    0.0000    0.0000    0.0000 C   0  0  0  0  0  0  0  0  0  0  0  0
    1.2990    0.7500    0.0000 C   0  0  0  0  0  0  0  0  0  0  0  0
    2.5981   -0.0000    0.0000 C   0  0  0  0  0  0  0  0  0  0  0  0
    3.8971    0.7500    0.0000 C   0  0  0  0  0  0  0  0  0  0  0  0
    5.1962   -0.0000    0.0000 C   0  0  0  0  0  0  0  0  0  0  0  0
    6.4952    0.7500    0.0000 O   0  0  0  0  0  0  0  0  0  0  0  0
    3.8971    2.2500    0.0000 N   0  0  0  0  0  0  0  0  0  0  0  0
    5.1962    3.0000    0.0000 C   0  0  0  0  0  0  0  0  0  0  0  0
    5.1962    4.5000    0.0000 C   0  0  0  0  0  0  0  0  0  0  0  0
    6.4952    5.2500    0.0000 C   0  0  0  0  0  0  0  0  0  0  0  0
    6.4952    6.7500    0.0000 C   0  0  0  0  0  0  0  0  0  0  0  0
    7.7942    7.5000    0.0000 N   0  0  0  0  0  0  0  0  0  0  0  0
    7.7942    9.0000    0.0000 C   0  0  0  0  0  0  0  0  0  0  0  0
    9.0933    9.7500    0.0000 C   0  0  0  0  0  0  0  0  0  0  0  0
    6.4952    9.7500    0.0000 C   0  0  0  0  0  0  0  0  0  0  0  0
  1  2  2  0
  2  3  1  0
  3  4  1  0
  4  5  1  0
  5  6  1  0
  4  7  1  0
  7  8  1  0
  8  9  1  0
  9 10  2  3
 10 11  1  0
 11 12  1  0
 12 13  1  0
 13 14  1  0
 13 15  1  0
M  END
>  <Title>  (209) 
idAAGCgen14

$$$$

     RDKit          2D

 36 35  0  0  0  0  0  0  0  0999 V2000
    0.0000    0.0000    0.0000 C   0  0  0  0  0  0  0  0  0  0  0  0
   -0.0000   -1.5000    0.0000 C   0  0  0  0  0  0  0  0  0  0  0  0
   -0.0000   -3.0000    0.0000 C   0  0  0  0  0  0  0  0  0  0  0  0
   -0.0000   -4.5000    0.0000 C   0  0  0  0  0  0  0  0  0  0  0  0
   -0.0000   -6.0000    0.0000 C   0  0  0  0  0  0  0  0  0  0  0  0
   -0.0000   -7.5000    0.0000 C   0  0  0  0  0  0  0  0  0  0  0  0
   -0.0000   -9.0000    0.0000 C   0  0  0  0  0  0  0  0  0  0  0  0
   -0.0000  -10.5000    0.0000 C   0  0  0  0  0  0  0  0  0  0  0  0
   -0.0000  -12.0000    0.0000 C   0  0  0  0  0  0  0  0  0  0  0  0
   -0.0000  -13.5000    0.0000 C   0  0  0  0  0  0  0  0  0  0  0  0
   -0.0000  -15.0000    0.0000 C   0  0  0  0  0  0  0  0  0  0  0  0
   -0.0000  -16.5000    0.0000 C   0  0  0  0  0  0  0  0  0  0  0  0
   -0.0000  -18.0000    0.0000 C   0  0  0  0  0  0  0  0  0  0  0  0
   -0.0000  -19.5000    0.0000 C   0  0  0  0  0  0  0  0  0  0  0  0
   -0.0000  -21.0000    0.0000 C   0  0  0  0  0  0  0  0  0  0  0  0
   -0.0000  -22.5000    0.0000 C   0  0  0  0  0  0  0  0  0  0  0  0
   -0.0000  -24.0000    0.0000 C   0  0  0  0  0  0  0  0  0  0  0  0
   -0.0000  -25.5000    0.0000 C   0  0  0  0  0  0  0  0  0  0  0  0
   -0.0000  -27.0000    0.0000 C   0  0  0  0  0  0  0  0  0  0  0  0
   -0.0000  -28.5000    0.0000 C   0  0  0  0  0  0  0  0  0  0  0  0
   -0.0000  -30.0000    0.0000 C   0  0  0  0  0  0  0  0  0  0  0  0
   -0.0000  -31.5000    0.0000 C   0  0  0  0  0  0  0  0  0  0  0  0
   -0.0000  -33.0000    0.0000 C   0  0  0  0  0  0  0  0  0  0  0  0
   -0.0000  -34.5000    0.0000 C   0  0  0  0  0  0  0  0  0  0  0  0
   -0.0000  -36.0000    0.0000 C   0  0  0  0  0  0  0  0  0  0  0  0
   -0.0000  -37.5000    0.0000 C   0  0  0  0  0  0  0  0  0  0  0  0
   -0.0000  -39.0000    0.0000 C   0  0  0  0  0  0  0  0  0  0  0  0
   -0.0000  -40.5000    0.0000 C   0  0  0  0  0  0  0  0  0  0  0  0
   -0.0000  -42.0000    0.0000 C   0  0  0  0  0  0  0  0  0  0  0  0
   -0.0000  -43.5000    0.0000 C   0  0  0  0  0  0  0  0  0  0  0  0
   -0.0000  -45.0000    0.0000 C   0  0  0  0  0  0  0  0  0  0  0  0
    1.2990  -45.7500    0.0000 C   0  0  0  0  0  0  0  0  0  0  0  0
    1.2990  -47.2500    0.0000 C   0  0  0  0  0  0  0  0  0  0  0  0
    2.5981  -48.0000    0.0000 C   0  0  0  0  0  0  0  0  0  0  0  0
    2.5981  -49.5000    0.0000 C   0  0  0  0  0  0  0  0  0  0  0  0
    2.5981  -51.0000    0.0000 C   0  0  0  0  0  0  0  0  0  0  0  0
  1  2  3  0
  2  3  1  0
  3  4  3  0
  4  5  1  0
  5  6  3  0
  6  7  1  0
  7  8  3  0
  8  9  1  0
  9 10  3  0
 10 11  1  0
 11 12  3  0
 12 13  1  0
 13 14  3  0
 14 15  1  0
 15 16  3  0
 16 17  1  0
 17 18  3  0
 18 19  1  0
 19 20  3  0
 20 21  1  0
 21 22  3  0
 22 23  1  0
 23 24  3  0
 24 25  1  0
 25 26  3  0
 26 27  1  0
 27 28  3  0
 28 29  1  0
 29 30  3  0
 30 31  1  0
 31 32  2  3
 32 33  1  0
 33 34  2  3
 34 35  1  0
 35 36  3  0
M  END
>  <Title>  (210) 
idAAGDgen14

$$$$

     RDKit          2D

 10 10  0  0  0  0  0  0  0  0999 V2000
    6.0000   -2.5981    0.0000 C   0  0  0  0  0  0  0  0  0  0  0  0
    5.2500   -1.2990    0.0000 C   0  0  0  0  0  0  0  0  0  0  0  0
    3.7500   -1.2990    0.0000 C   0  0  0  0  0  0  0  0  0  0  0  0
    3.0000    0.0000    0.0000 C   0  0  0  0  0  0  0  0  0  0  0  0
    1.5000    0.0000    0.0000 C   0  0  0  0  0  0  0  0  0  0  0  0
    0.7500   -1.2990    0.0000 C   0  0  0  0  0  0  0  0  0  0  0  0
   -0.7500   -1.2990    0.0000 C   0  0  0  0  0  0  0  0  0  0  0  0
   -1.5000    0.0000    0.0000 C   0  0  0  0  0  0  0  0  0  0  0  0
   -0.7500    1.2990    0.0000 N   0  0  0  0  0  0  0  0  0  0  0  0
    0.7500    1.2990    0.0000 C   0  0  0  0  0  0  0  0  0  0  0  0
  1  2  1  0
  2  3  1  0
  3  4  1  0
  4  5  1  0
  5  6  2  0
  6  7  1  0
  7  8  2  0
  8  9  1  0
  9 10  2  0
 10  5  1  0
M  END
>  <Title>  (211) 
idAAGEgen14

$$$$

     RDKit          2D

  8  8  0  0  0  0  0  0  0  0999 V2000
    5.0260   -1.2990    0.0000 N   0  0  0  0  0  0  0  0  0  0  0  0
    3.5260   -1.2990    0.0000 C   0  0  0  0  0  0  0  0  0  0  0  0
    2.7760    0.0000    0.0000 C   0  0  0  0  0  0  0  0  0  0  0  0
    1.2760    0.0000    0.0000 N   0  0  0  0  0  0  0  0  0  0  0  0
    0.3943    1.2135    0.0000 C   0  0  0  0  0  0  0  0  0  0  0  0
   -1.0323    0.7500    0.0000 C   0  0  0  0  0  0  0  0  0  0  0  0
   -1.0323   -0.7500    0.0000 C   0  0  0  0  0  0  0  0  0  0  0  0
    0.3943   -1.2135    0.0000 C   0  0  0  0  0  0  0  0  0  0  0  0
  1  2  1  0
  2  3  1  0
  3  4  1  0
  4  5  1  0
  5  6  2  0
  6  7  1  0
  7  8  2  0
  8  4  1  0
M  END
>  <Title>  (212) 
idAAGFgen14

$$$$

     RDKit          2D

 10 10  0  0  0  0  0  0  0  0999 V2000
    6.0000   -2.5981    0.0000 C   0  0  0  0  0  0  0  0  0  0  0  0
    5.2500   -1.2990    0.0000 C   0  0  0  0  0  0  0  0  0  0  0  0
    3.7500   -1.2990    0.0000 C   0  0  0  0  0  0  0  0  0  0  0  0
    3.0000    0.0000    0.0000 C   0  0  0  0  0  0  0  0  0  0  0  0
    1.5000    0.0000    0.0000 C   0  0  0  0  0  0  0  0  0  0  0  0
    0.7500   -1.2990    0.0000 C   0  0  0  0  0  0  0  0  0  0  0  0
   -0.7500   -1.2990    0.0000 C   0  0  0  0  0  0  0  0  0  0  0  0
   -1.5000    0.0000    0.0000 C   0  0  0  0  0  0  0  0  0  0  0  0
   -0.7500    1.2990    0.0000 C   0  0  0  0  0  0  0  0  0  0  0  0
    0.7500    1.2990    0.0000 C   0  0  0  0  0  0  0  0  0  0  0  0
  1  2  1  0
  2  3  1  0
  3  4  2  3
  4  5  1  0
  5  6  2  0
  6  7  1  0
  7  8  2  0
  8  9  1  0
  9 10  2  0
 10  5  1  0
M  END
>  <Title>  (213) 
idAAGGgen14

$$$$

     RDKit          2D

 18 19  0  0  0  0  0  0  0  0999 V2000
   -4.5960   -6.1334    0.0000 C   0  0  0  0  0  0  0  0  0  0  0  0
   -3.2970   -6.8834    0.0000 C   0  0  0  0  0  0  0  0  0  0  0  0
   -3.2970   -8.3834    0.0000 O   0  0  0  0  0  0  0  0  0  0  0  0
   -1.9979   -6.1334    0.0000 N   0  0  0  0  0  0  0  0  0  0  0  0
   -0.6989   -6.8834    0.0000 C   0  0  0  0  0  0  0  0  0  0  0  0
    0.7500   -6.4952    0.0000 C   0  0  0  0  0  0  0  0  0  0  0  0
    1.5000   -5.1962    0.0000 C   0  0  0  0  0  0  0  0  0  0  0  0
    0.7500   -3.8971    0.0000 C   0  0  0  0  0  0  0  0  0  0  0  0
   -0.7500   -3.8971    0.0000 O   0  0  0  0  0  0  0  0  0  0  0  0
    1.5000   -2.5981    0.0000 N   0  0  0  0  0  0  0  0  0  0  0  0
    0.7500   -1.2990    0.0000 C   0  0  0  0  0  0  0  0  0  0  0  0
    1.5000    0.0000    0.0000 N   0  0  0  0  0  0  0  0  0  0  0  0
    0.7500    1.2990    0.0000 N   0  0  0  0  0  0  0  0  0  0  0  0
   -0.7500    1.2990    0.0000 N   0  0  0  0  0  0  0  0  0  0  0  0
   -1.5000    0.0000    0.0000 N   0  0  0  0  0  0  0  0  0  0  0  0
   -0.7500   -1.2990    0.0000 N   0  0  0  0  0  0  0  0  0  0  0  0
    1.1382   -7.9441    0.0000 C   0  0  0  0  0  0  0  0  0  0  0  0
   -0.3107   -8.3323    0.0000 C   0  0  0  0  0  0  0  0  0  0  0  0
  1  2  1  0
  2  3  2  0
  2  4  1  0
  4  5  1  0
  5  6  2  0
  6  7  1  0
  7  8  1  0
  8  9  2  0
  8 10  1  0
 10 11  1  0
 11 12  2  0
 12 13  1  0
 13 14  2  0
 14 15  1  0
 15 16  2  0
  6 17  1  0
 17 18  2  0
 18  5  1  0
 16 11  1  0
M  END
>  <Title>  (214) 
idAAGHgen14

$$$$

     RDKit          2D

 26 29  0  0  0  0  0  0  0  0999 V2000
   -3.0000   -2.5981    0.0000 C   0  0  0  0  0  0  0  0  0  0  0  0
   -1.5000   -2.5981    0.0000 C   0  0  0  0  0  0  0  0  0  0  0  0
   -0.7500   -3.8971    0.0000 C   0  0  0  0  0  0  0  0  0  0  0  0
    0.7500   -3.8971    0.0000 C   0  0  0  0  0  0  0  0  0  0  0  0
    1.5000   -2.5981    0.0000 C   0  0  0  0  0  0  0  0  0  0  0  0
    3.0000   -2.5981    0.0000 C   0  0  0  0  0  0  0  0  0  0  0  0
    3.7500   -1.2990    0.0000 O   0  0  0  0  0  0  0  0  0  0  0  0
    3.7500   -3.8971    0.0000 N   0  0  0  0  0  0  0  0  0  0  0  0
    5.2500   -3.8971    0.0000 C   0  0  0  0  0  0  0  0  0  0  0  0
    6.1317   -2.6836    0.0000 N   0  0  0  0  0  0  0  0  0  0  0  0
    7.5583   -3.1471    0.0000 N   0  0  0  0  0  0  0  0  0  0  0  0
    7.5583   -4.6471    0.0000 N   0  0  0  0  0  0  0  0  0  0  0  0
    6.1317   -5.1106    0.0000 N   0  0  0  0  0  0  0  0  0  0  0  0
    5.6682   -6.5372    0.0000 C   0  0  0  0  0  0  0  0  0  0  0  0
    4.2009   -6.8491    0.0000 C   0  0  0  0  0  0  0  0  0  0  0  0
    3.7374   -8.2757    0.0000 C   0  0  0  0  0  0  0  0  0  0  0  0
    4.7411   -9.3904    0.0000 C   0  0  0  0  0  0  0  0  0  0  0  0
    6.2083   -9.0785    0.0000 C   0  0  0  0  0  0  0  0  0  0  0  0
    6.6718   -7.6519    0.0000 C   0  0  0  0  0  0  0  0  0  0  0  0
    0.7500   -1.2990    0.0000 C   0  0  0  0  0  0  0  0  0  0  0  0
    1.5000    0.0000    0.0000 C   0  0  0  0  0  0  0  0  0  0  0  0
    0.7500    1.2990    0.0000 C   0  0  0  0  0  0  0  0  0  0  0  0
   -0.7500    1.2990    0.0000 C   0  0  0  0  0  0  0  0  0  0  0  0
   -1.5000    2.5981    0.0000 O   0  0  0  0  0  0  0  0  0  0  0  0
   -1.5000    0.0000    0.0000 C   0  0  0  0  0  0  0  0  0  0  0  0
   -0.7500   -1.2990    0.0000 C   0  0  0  0  0  0  0  0  0  0  0  0
  1  2  1  0
  2  3  1  0
  3  4  1  0
  4  5  1  0
  5  6  1  0
  6  7  2  0
  6  8  1  0
  8  9  1  0
  9 10  2  0
 10 11  1  0
 11 12  2  0
 12 13  1  0
 13 14  1  0
 14 15  2  0
 15 16  1  0
 16 17  2  0
 17 18  1  0
 18 19  2  0
  5 20  1  0
 20 21  2  0
 21 22  1  0
 22 23  2  0
 23 24  1  0
 23 25  1  0
 25 26  2  0
 26  2  1  0
 13  9  1  0
 19 14  1  0
 26 20  1  0
M  END
>  <Title>  (215) 
idAAGIgen14

$$$$

     RDKit          2D

  8  7  0  0  0  0  0  0  0  0999 V2000
    0.0000    0.0000    0.0000 C   0  0  0  0  0  0  0  0  0  0  0  0
    1.2990    0.7500    0.0000 C   0  0  0  0  0  0  0  0  0  0  0  0
    2.5981   -0.0000    0.0000 C   0  0  0  0  0  0  0  0  0  0  0  0
    3.8971    0.7500    0.0000 C   0  0  0  0  0  0  0  0  0  0  0  0
    5.1962   -0.0000    0.0000 C   0  0  0  0  0  0  0  0  0  0  0  0
    6.4952    0.7500    0.0000 C   0  0  0  0  0  0  0  0  0  0  0  0
    7.7942   -0.0000    0.0000 C   0  0  0  0  0  0  0  0  0  0  0  0
    9.0933    0.7500    0.0000 C   0  0  0  0  0  0  0  0  0  0  0  0
  1  2  2  0
  2  3  1  0
  3  4  1  0
  4  5  1  0
  5  6  2  3
  6  7  1  0
  7  8  1  0
M  END
>  <Title>  (216) 
idAAGJgen14

$$$$

     RDKit          2D

  7  7  0  0  0  0  0  0  0  0999 V2000
    3.0000    0.0000    0.0000 O   0  0  0  0  0  0  0  0  0  0  0  0
    1.5000    0.0000    0.0000 C   0  0  0  0  0  0  0  0  0  0  0  0
    0.7500   -1.2990    0.0000 C   0  0  0  0  0  0  0  0  0  0  0  0
   -0.7500   -1.2990    0.0000 C   0  0  0  0  0  0  0  0  0  0  0  0
   -1.5000    0.0000    0.0000 C   0  0  0  0  0  0  0  0  0  0  0  0
   -0.7500    1.2990    0.0000 N   0  0  0  0  0  0  0  0  0  0  0  0
    0.7500    1.2990    0.0000 C   0  0  0  0  0  0  0  0  0  0  0  0
  1  2  1  0
  2  3  2  0
  3  4  1  0
  4  5  2  0
  5  6  1  0
  6  7  2  0
  7  2  1  0
M  END
>  <Title>  (217) 
idAAGKgen14

$$$$

     RDKit          2D

  9  8  0  0  0  0  0  0  0  0999 V2000
    0.0000    0.0000    0.0000 C   0  0  0  0  0  0  0  0  0  0  0  0
    1.2990    0.7500    0.0000 C   0  0  0  0  0  0  0  0  0  0  0  0
    2.5981   -0.0000    0.0000 C   0  0  0  0  0  0  0  0  0  0  0  0
    3.8971    0.7500    0.0000 C   0  0  0  0  0  0  0  0  0  0  0  0
    5.1962   -0.0000    0.0000 C   0  0  0  0  0  0  0  0  0  0  0  0
    6.4952    0.7500    0.0000 N   0  0  0  0  0  0  0  0  0  0  0  0
    7.7942   -0.0000    0.0000 C   0  0  0  0  0  0  0  0  0  0  0  0
    9.0933    0.7500    0.0000 C   0  0  0  0  0  0  0  0  0  0  0  0
   10.3923   -0.0000    0.0000 C   0  0  0  0  0  0  0  0  0  0  0  0
  1  2  1  0
  2  3  1  0
  3  4  1  0
  4  5  1  0
  5  6  1  0
  6  7  1  0
  7  8  1  0
  8  9  1  0
M  END
>  <Title>  (218) 
idAAGLgen14

$$$$

     RDKit          2D

  6  5  0  0  0  0  0  0  0  0999 V2000
    0.0000    0.0000    0.0000 C   0  0  0  0  0  0  0  0  0  0  0  0
    1.2990    0.7500    0.0000 C   0  0  0  0  0  0  0  0  0  0  0  0
    2.5981   -0.0000    0.0000 C   0  0  0  0  0  0  0  0  0  0  0  0
    3.8971    0.7500    0.0000 C   0  0  0  0  0  0  0  0  0  0  0  0
    2.5981   -1.5000    0.0000 N   0  0  0  0  0  0  0  0  0  0  0  0
    3.8971   -2.2500    0.0000 C   0  0  0  0  0  0  0  0  0  0  0  0
  1  2  1  0
  2  3  1  0
  3  4  1  0
  3  5  1  0
  5  6  1  0
M  END
>  <Title>  (219) 
idAAGMgen14

$$$$

     RDKit          2D

 28 31  0  0  0  0  0  0  0  0999 V2000
   -3.1476   -2.1380    0.0000 C   0  0  0  0  0  0  0  0  0  0  0  0
   -1.6852   -2.4718    0.0000 C   0  0  0  0  0  0  0  0  0  0  0  0
   -1.3515   -3.9342    0.0000 C   0  0  0  0  0  0  0  0  0  0  0  0
   -0.0000   -4.5850    0.0000 C   0  0  0  0  0  0  0  0  0  0  0  0
    1.3515   -3.9342    0.0000 C   0  0  0  0  0  0  0  0  0  0  0  0
    1.6852   -2.4718    0.0000 C   0  0  0  0  0  0  0  0  0  0  0  0
    3.1476   -2.1380    0.0000 C   0  0  0  0  0  0  0  0  0  0  0  0
    3.5898   -0.7046    0.0000 O   0  0  0  0  0  0  0  0  0  0  0  0
    4.1679   -3.2376    0.0000 N   0  0  0  0  0  0  0  0  0  0  0  0
    5.6303   -2.9038    0.0000 C   0  0  0  0  0  0  0  0  0  0  0  0
    6.2198   -1.5245    0.0000 N   0  0  0  0  0  0  0  0  0  0  0  0
    7.7138   -1.6590    0.0000 N   0  0  0  0  0  0  0  0  0  0  0  0
    8.0476   -3.1214    0.0000 N   0  0  0  0  0  0  0  0  0  0  0  0
    6.7599   -3.8907    0.0000 N   0  0  0  0  0  0  0  0  0  0  0  0
    6.6254   -5.3847    0.0000 N   0  0  0  0  0  0  0  0  0  0  0  0
    7.9131   -6.1540    0.0000 C   0  0  0  0  0  0  0  0  0  0  0  0
    8.1144   -7.6404    0.0000 N   0  0  0  0  0  0  0  0  0  0  0  0
    7.0779   -8.7246    0.0000 N   0  0  0  0  0  0  0  0  0  0  0  0
    5.5839   -8.5902    0.0000 N   0  0  0  0  0  0  0  0  0  0  0  0
    4.7575   -7.3383    0.0000 N   0  0  0  0  0  0  0  0  0  0  0  0
    5.2211   -5.9117    0.0000 N   0  0  0  0  0  0  0  0  0  0  0  0
    0.7500   -1.2990    0.0000 C   0  0  0  0  0  0  0  0  0  0  0  0
    1.5000    0.0000    0.0000 C   0  0  0  0  0  0  0  0  0  0  0  0
    0.7500    1.2990    0.0000 C   0  0  0  0  0  0  0  0  0  0  0  0
   -0.7500    1.2990    0.0000 C   0  0  0  0  0  0  0  0  0  0  0  0
   -1.5000    2.5981    0.0000 O   0  0  0  0  0  0  0  0  0  0  0  0
   -1.5000    0.0000    0.0000 C   0  0  0  0  0  0  0  0  0  0  0  0
   -0.7500   -1.2990    0.0000 C   0  0  0  0  0  0  0  0  0  0  0  0
  1  2  1  0
  2  3  1  0
  3  4  2  0
  4  5  1  0
  5  6  1  0
  6  7  1  0
  7  8  2  0
  7  9  1  0
  9 10  1  0
 10 11  2  0
 11 12  1  0
 12 13  2  0
 13 14  1  0
 14 15  1  0
 15 16  1  0
 16 17  2  0
 17 18  1  0
 18 19  2  0
 19 20  1  0
 20 21  2  0
  6 22  1  0
 22 23  2  0
 23 24  1  0
 24 25  2  0
 25 26  1  0
 25 27  1  0
 27 28  2  0
 28  2  1  0
 14 10  1  0
 21 15  1  0
 28 22  1  0
M  END
>  <Title>  (220) 
idAAGNgen14

$$$$

     RDKit          2D

 53 54  0  0  0  0  0  0  0  0999 V2000
    0.3489    3.4543    0.0000 C   0  0  0  0  0  0  0  0  0  0  0  0
    1.7382    4.0200    0.0000 C   0  0  0  0  0  0  0  0  0  0  0  0
    1.2861    5.4503    0.0000 C   0  0  0  0  0  0  0  0  0  0  0  0
    1.0694    6.9345    0.0000 C   0  0  0  0  0  0  0  0  0  0  0  0
    1.0936    8.4343    0.0000 C   0  0  0  0  0  0  0  0  0  0  0  0
    1.3580    9.9108    0.0000 C   0  0  0  0  0  0  0  0  0  0  0  0
    1.8559   11.3258    0.0000 C   0  0  0  0  0  0  0  0  0  0  0  0
    2.5743   12.6426    0.0000 C   0  0  0  0  0  0  0  0  0  0  0  0
    3.4946   13.8271    0.0000 C   0  0  0  0  0  0  0  0  0  0  0  0
    4.5930   14.8486    0.0000 C   0  0  0  0  0  0  0  0  0  0  0  0
    5.8410   15.6807    0.0000 C   0  0  0  0  0  0  0  0  0  0  0  0
    7.2064   16.3018    0.0000 C   0  0  0  0  0  0  0  0  0  0  0  0
    8.6537   16.6959    0.0000 C   0  0  0  0  0  0  0  0  0  0  0  0
   10.1455   16.8527    0.0000 C   0  0  0  0  0  0  0  0  0  0  0  0
   11.6431   16.7681    0.0000 C   0  0  0  0  0  0  0  0  0  0  0  0
   13.1078   16.4445    0.0000 C   0  0  0  0  0  0  0  0  0  0  0  0
   14.5015   15.8900    0.0000 C   0  0  0  0  0  0  0  0  0  0  0  0
   15.7883   15.1192    0.0000 C   0  0  0  0  0  0  0  0  0  0  0  0
   16.9348   14.1519    0.0000 C   0  0  0  0  0  0  0  0  0  0  0  0
   17.9113   13.0133    0.0000 C   0  0  0  0  0  0  0  0  0  0  0  0
   18.6924   11.7328    0.0000 C   0  0  0  0  0  0  0  0  0  0  0  0
   19.2581   10.3435    0.0000 C   0  0  0  0  0  0  0  0  0  0  0  0
   19.5935    8.8815    0.0000 C   0  0  0  0  0  0  0  0  0  0  0  0
   19.6901    7.3846    0.0000 C   0  0  0  0  0  0  0  0  0  0  0  0
   19.5454    5.8916    0.0000 C   0  0  0  0  0  0  0  0  0  0  0  0
   19.1630    4.4412    0.0000 C   0  0  0  0  0  0  0  0  0  0  0  0
   18.5529    3.0708    0.0000 C   0  0  0  0  0  0  0  0  0  0  0  0
   17.7308    1.8161    0.0000 C   0  0  0  0  0  0  0  0  0  0  0  0
   16.7182    0.7095    0.0000 C   0  0  0  0  0  0  0  0  0  0  0  0
   15.5412   -0.2203    0.0000 C   0  0  0  0  0  0  0  0  0  0  0  0
   14.2302   -0.9493    0.0000 C   0  0  0  0  0  0  0  0  0  0  0  0
   12.8193   -1.4585    0.0000 C   0  0  0  0  0  0  0  0  0  0  0  0
   11.3450   -1.7348    0.0000 C   0  0  0  0  0  0  0  0  0  0  0  0
    9.8454   -1.7711    0.0000 C   0  0  0  0  0  0  0  0  0  0  0  0
    8.3595   -1.5663    0.0000 C   0  0  0  0  0  0  0  0  0  0  0  0
    6.9256   -1.1258    0.0000 C   0  0  0  0  0  0  0  0  0  0  0  0
    5.5809   -0.4610    0.0000 C   0  0  0  0  0  0  0  0  0  0  0  0
    4.3604    0.4108    0.0000 C   0  0  0  0  0  0  0  0  0  0  0  0
    3.2954    1.4672    0.0000 C   0  0  0  0  0  0  0  0  0  0  0  0
    3.6073    0.0000    0.0000 C   0  0  0  0  0  0  0  0  0  0  0  0
    3.2954   -1.4672    0.0000 C   0  0  0  0  0  0  0  0  0  0  0  0
    2.4138   -2.6807    0.0000 C   0  0  0  0  0  0  0  0  0  0  0  0
    1.1147   -3.4307    0.0000 C   0  0  0  0  0  0  0  0  0  0  0  0
   -0.3771   -3.5875    0.0000 C   0  0  0  0  0  0  0  0  0  0  0  0
   -1.8037   -3.1240    0.0000 C   0  0  0  0  0  0  0  0  0  0  0  0
   -2.9184   -2.1203    0.0000 C   0  0  0  0  0  0  0  0  0  0  0  0
   -3.5285   -0.7500    0.0000 C   0  0  0  0  0  0  0  0  0  0  0  0
   -3.5285    0.7500    0.0000 C   0  0  0  0  0  0  0  0  0  0  0  0
   -2.9184    2.1203    0.0000 C   0  0  0  0  0  0  0  0  0  0  0  0
   -1.8037    3.1240    0.0000 C   0  0  0  0  0  0  0  0  0  0  0  0
   -0.3771    3.5875    0.0000 C   0  0  0  0  0  0  0  0  0  0  0  0
    1.1147    3.4307    0.0000 C   0  0  0  0  0  0  0  0  0  0  0  0
    2.4138    2.6807    0.0000 C   0  0  0  0  0  0  0  0  0  0  0  0
  1  2  1  0
  2  3  1  0
  3  4  1  0
  4  5  1  0
  5  6  1  0
  6  7  1  0
  7  8  1  0
  8  9  1  0
  9 10  1  0
 10 11  1  0
 11 12  1  0
 12 13  1  0
 13 14  1  0
 14 15  1  0
 15 16  1  0
 16 17  1  0
 17 18  1  0
 18 19  1  0
 19 20  1  0
 20 21  1  0
 21 22  1  0
 22 23  1  0
 23 24  1  0
 24 25  1  0
 25 26  1  0
 26 27  1  0
 27 28  1  0
 28 29  1  0
 29 30  1  0
 30 31  1  0
 31 32  1  0
 32 33  1  0
 33 34  1  0
 34 35  1  0
 35 36  1  0
 36 37  1  0
 37 38  1  0
 38 39  1  0
 39 40  1  0
 40 41  1  0
 41 42  1  0
 42 43  2  0
 43 44  1  0
 44 45  2  0
 45 46  1  0
 46 47  2  0
 47 48  1  0
 48 49  2  0
 49 50  1  0
 50 51  2  0
 51 52  1  0
 52 53  2  0
 53  2  1  0
 53 39  1  0
M  END
>  <Title>  (221) 
idAAGOgen14

$$$$

     RDKit          2D

  7  7  0  0  0  0  0  0  0  0999 V2000
    3.0000    0.0000    0.0000 O   0  0  0  0  0  0  0  0  0  0  0  0
    1.5000    0.0000    0.0000 C   0  0  0  0  0  0  0  0  0  0  0  0
    0.7500   -1.2990    0.0000 C   0  0  0  0  0  0  0  0  0  0  0  0
   -0.7500   -1.2990    0.0000 C   0  0  0  0  0  0  0  0  0  0  0  0
   -1.5000    0.0000    0.0000 C   0  0  0  0  0  0  0  0  0  0  0  0
   -0.7500    1.2990    0.0000 C   0  0  0  0  0  0  0  0  0  0  0  0
    0.7500    1.2990    0.0000 C   0  0  0  0  0  0  0  0  0  0  0  0
  1  2  1  0
  2  3  1  0
  3  4  2  0
  4  5  1  0
  5  6  1  0
  6  7  2  0
  7  2  1  0
M  END
>  <Title>  (222) 
idAAGPgen14

$$$$

     RDKit          2D

 12 12  0  0  0  0  0  0  0  0999 V2000
    8.0260    1.2990    0.0000 C   0  0  0  0  0  0  0  0  0  0  0  0
    7.2760    0.0000    0.0000 C   0  0  0  0  0  0  0  0  0  0  0  0
    5.7760    0.0000    0.0000 C   0  0  0  0  0  0  0  0  0  0  0  0
    5.0260   -1.2990    0.0000 C   0  0  0  0  0  0  0  0  0  0  0  0
    5.7760   -2.5981    0.0000 C   0  0  0  0  0  0  0  0  0  0  0  0
    3.5260   -1.2990    0.0000 N   0  0  0  0  0  0  0  0  0  0  0  0
    2.7760    0.0000    0.0000 C   0  0  0  0  0  0  0  0  0  0  0  0
    1.2760    0.0000    0.0000 C   0  0  0  0  0  0  0  0  0  0  0  0
    0.3943    1.2135    0.0000 C   0  0  0  0  0  0  0  0  0  0  0  0
   -1.0323    0.7500    0.0000 C   0  0  0  0  0  0  0  0  0  0  0  0
   -1.0323   -0.7500    0.0000 C   0  0  0  0  0  0  0  0  0  0  0  0
    0.3943   -1.2135    0.0000 C   0  0  0  0  0  0  0  0  0  0  0  0
  1  2  1  0
  2  3  1  0
  3  4  1  0
  4  5  1  0
  4  6  1  0
  6  7  1  0
  7  8  1  0
  8  9  2  0
  9 10  1  0
 10 11  1  0
 11 12  2  0
 12  8  1  0
M  END
>  <Title>  (223) 
idAAGQgen14

$$$$

     RDKit          2D

 13 13  0  0  0  0  0  0  0  0999 V2000
    8.2500   -3.8971    0.0000 C   0  0  0  0  0  0  0  0  0  0  0  0
    7.5000   -2.5981    0.0000 C   0  0  0  0  0  0  0  0  0  0  0  0
    6.0000   -2.5981    0.0000 C   0  0  0  0  0  0  0  0  0  0  0  0
    5.2500   -1.2990    0.0000 C   0  0  0  0  0  0  0  0  0  0  0  0
    3.7500   -1.2990    0.0000 C   0  0  0  0  0  0  0  0  0  0  0  0
    3.0000    0.0000    0.0000 N   0  0  0  0  0  0  0  0  0  0  0  0
    1.5000    0.0000    0.0000 N   0  0  0  0  0  0  0  0  0  0  0  0
    0.7500   -1.2990    0.0000 C   0  0  0  0  0  0  0  0  0  0  0  0
   -0.7500   -1.2990    0.0000 C   0  0  0  0  0  0  0  0  0  0  0  0
   -1.5000    0.0000    0.0000 C   0  0  0  0  0  0  0  0  0  0  0  0
   -3.0000    0.0000    0.0000 C   0  0  0  0  0  0  0  0  0  0  0  0
   -0.7500    1.2990    0.0000 C   0  0  0  0  0  0  0  0  0  0  0  0
    0.7500    1.2990    0.0000 C   0  0  0  0  0  0  0  0  0  0  0  0
  1  2  1  0
  2  3  2  3
  3  4  1  0
  4  5  1  0
  5  6  2  3
  6  7  1  0
  7  8  1  0
  8  9  1  0
  9 10  1  0
 10 11  1  0
 10 12  1  0
 12 13  1  0
 13  7  1  0
M  END
>  <Title>  (224) 
idAAGRgen14

$$$$

     RDKit          2D

 44 49  0  0  0  0  0  0  0  0999 V2000
   -3.7860   -5.5823    0.0000 C   0  0  0  0  0  0  0  0  0  0  0  0
   -2.4215   -4.9592    0.0000 C   0  0  0  0  0  0  0  0  0  0  0  0
   -1.4392   -6.0928    0.0000 C   0  0  0  0  0  0  0  0  0  0  0  0
   -0.0000   -6.5154    0.0000 C   0  0  0  0  0  0  0  0  0  0  0  0
    1.4392   -6.0928    0.0000 C   0  0  0  0  0  0  0  0  0  0  0  0
    2.4215   -4.9592    0.0000 C   0  0  0  0  0  0  0  0  0  0  0  0
    3.7860   -5.5823    0.0000 C   0  0  0  0  0  0  0  0  0  0  0  0
    5.0078   -4.7122    0.0000 O   0  0  0  0  0  0  0  0  0  0  0  0
    3.9286   -7.0755    0.0000 N   0  0  0  0  0  0  0  0  0  0  0  0
    5.2930   -7.6986    0.0000 C   0  0  0  0  0  0  0  0  0  0  0  0
    6.5991   -6.9610    0.0000 N   0  0  0  0  0  0  0  0  0  0  0  0
    7.7042   -7.9753    0.0000 N   0  0  0  0  0  0  0  0  0  0  0  0
    7.0811   -9.3397    0.0000 N   0  0  0  0  0  0  0  0  0  0  0  0
    5.5909   -9.1688    0.0000 N   0  0  0  0  0  0  0  0  0  0  0  0
    4.5766  -10.2739    0.0000 N   0  0  0  0  0  0  0  0  0  0  0  0
    4.8745  -11.7440    0.0000 C   0  0  0  0  0  0  0  0  0  0  0  0
    3.5684  -12.4816    0.0000 C   0  0  0  0  0  0  0  0  0  0  0  0
    2.4633  -11.4673    0.0000 C   0  0  0  0  0  0  0  0  0  0  0  0
    0.9932  -11.7652    0.0000 C   0  0  0  0  0  0  0  0  0  0  0  0
    0.5161  -13.1873    0.0000 O   0  0  0  0  0  0  0  0  0  0  0  0
    0.0001  -10.6410    0.0000 N   0  0  0  0  0  0  0  0  0  0  0  0
   -1.4700  -10.9389    0.0000 C   0  0  0  0  0  0  0  0  0  0  0  0
   -2.4630   -9.8147    0.0000 N   0  0  0  0  0  0  0  0  0  0  0  0
   -3.9332  -10.1125    0.0000 N   0  0  0  0  0  0  0  0  0  0  0  0
   -4.4102  -11.5346    0.0000 N   0  0  0  0  0  0  0  0  0  0  0  0
   -3.4172  -12.6589    0.0000 N   0  0  0  0  0  0  0  0  0  0  0  0
   -1.9471  -12.3610    0.0000 N   0  0  0  0  0  0  0  0  0  0  0  0
    3.0864  -10.1029    0.0000 C   0  0  0  0  0  0  0  0  0  0  0  0
    2.3488   -8.7968    0.0000 O   0  0  0  0  0  0  0  0  0  0  0  0
    2.6350   -3.4744    0.0000 C   0  0  0  0  0  0  0  0  0  0  0  0
    4.1197   -3.2610    0.0000 O   0  0  0  0  0  0  0  0  0  0  0  0
    2.0119   -2.1100    0.0000 O   0  0  0  0  0  0  0  0  0  0  0  0
    0.7500   -1.2990    0.0000 C   0  0  0  0  0  0  0  0  0  0  0  0
    1.5000    0.0000    0.0000 C   0  0  0  0  0  0  0  0  0  0  0  0
    0.7500    1.2990    0.0000 C   0  0  0  0  0  0  0  0  0  0  0  0
   -0.7500    1.2990    0.0000 C   0  0  0  0  0  0  0  0  0  0  0  0
   -1.5000    0.0000    0.0000 C   0  0  0  0  0  0  0  0  0  0  0  0
   -0.7500   -1.2990    0.0000 C   0  0  0  0  0  0  0  0  0  0  0  0
   -2.0119   -2.1100    0.0000 C   0  0  0  0  0  0  0  0  0  0  0  0
   -2.8820   -0.8881    0.0000 C   0  0  0  0  0  0  0  0  0  0  0  0
   -4.3752   -1.0307    0.0000 C   0  0  0  0  0  0  0  0  0  0  0  0
   -4.9983   -2.3952    0.0000 C   0  0  0  0  0  0  0  0  0  0  0  0
   -4.1282   -3.6170    0.0000 C   0  0  0  0  0  0  0  0  0  0  0  0
   -2.6350   -3.4744    0.0000 C   0  0  0  0  0  0  0  0  0  0  0  0
  1  2  1  0
  2  3  1  0
  3  4  1  0
  4  5  1  0
  5  6  1  0
  6  7  1  0
  7  8  2  0
  7  9  1  0
  9 10  1  0
 10 11  2  0
 11 12  1  0
 12 13  2  0
 13 14  1  0
 14 15  1  0
 15 16  1  0
 16 17  1  0
 17 18  1  0
 18 19  1  0
 19 20  2  0
 19 21  1  0
 21 22  1  0
 22 23  2  0
 23 24  1  0
 24 25  2  0
 25 26  1  0
 26 27  2  0
 18 28  1  0
 28 29  2  0
  6 30  1  0
 30 31  2  0
 30 32  1  0
 32 33  1  0
 33 34  2  0
 34 35  1  0
 35 36  2  0
 36 37  1  0
 37 38  2  0
 38 39  1  0
 39 40  2  0
 40 41  1  0
 41 42  2  0
 42 43  1  0
 43 44  2  0
 44  2  1  0
 14 10  1  0
 28 15  1  0
 38 33  1  0
 44 39  1  0
 27 22  1  0
M  END
>  <Title>  (225) 
idAAGSgen14

$$$$

     RDKit          2D

  9  8  0  0  0  0  0  0  0  0999 V2000
    0.0000    0.0000    0.0000 C   0  0  0  0  0  0  0  0  0  0  0  0
    1.2990    0.7500    0.0000 C   0  0  0  0  0  0  0  0  0  0  0  0
    2.5981   -0.0000    0.0000 C   0  0  0  0  0  0  0  0  0  0  0  0
    3.8971    0.7500    0.0000 C   0  0  0  0  0  0  0  0  0  0  0  0
    2.5981   -1.5000    0.0000 C   0  0  0  0  0  0  0  0  0  0  0  0
    3.8971   -2.2500    0.0000 C   0  0  0  0  0  0  0  0  0  0  0  0
    5.1962   -1.5000    0.0000 O   0  0  0  0  0  0  0  0  0  0  0  0
    3.8971   -3.7500    0.0000 C   0  0  0  0  0  0  0  0  0  0  0  0
    5.1962   -4.5000    0.0000 C   0  0  0  0  0  0  0  0  0  0  0  0
  1  2  1  0
  2  3  1  0
  3  4  1  0
  3  5  1  0
  5  6  1  0
  6  7  1  0
  6  8  1  0
  8  9  1  0
M  END
>  <Title>  (226) 
idAAGTgen14

$$$$

     RDKit          2D

 40 45  0  0  0  0  0  0  0  0999 V2000
   -3.4182    0.0420    0.0000 C   0  0  0  0  0  0  0  0  0  0  0  0
   -3.8817   -1.3846    0.0000 C   0  0  0  0  0  0  0  0  0  0  0  0
   -5.3083   -1.8481    0.0000 C   0  0  0  0  0  0  0  0  0  0  0  0
   -5.3083   -3.3481    0.0000 C   0  0  0  0  0  0  0  0  0  0  0  0
   -3.8817   -3.8116    0.0000 N   0  0  0  0  0  0  0  0  0  0  0  0
   -3.0000   -2.5981    0.0000 N   0  0  0  0  0  0  0  0  0  0  0  0
   -1.5000   -2.5981    0.0000 C   0  0  0  0  0  0  0  0  0  0  0  0
   -0.7500   -3.8971    0.0000 C   0  0  0  0  0  0  0  0  0  0  0  0
    0.7500   -3.8971    0.0000 C   0  0  0  0  0  0  0  0  0  0  0  0
    1.5000   -2.5981    0.0000 C   0  0  0  0  0  0  0  0  0  0  0  0
    3.0000   -2.5981    0.0000 C   0  0  0  0  0  0  0  0  0  0  0  0
    3.7500   -1.2990    0.0000 O   0  0  0  0  0  0  0  0  0  0  0  0
    3.7500   -3.8971    0.0000 N   0  0  0  0  0  0  0  0  0  0  0  0
    5.2500   -3.8971    0.0000 C   0  0  0  0  0  0  0  0  0  0  0  0
    6.1317   -2.6836    0.0000 N   0  0  0  0  0  0  0  0  0  0  0  0
    7.5583   -3.1471    0.0000 N   0  0  0  0  0  0  0  0  0  0  0  0
    7.5583   -4.6471    0.0000 N   0  0  0  0  0  0  0  0  0  0  0  0
    6.1317   -5.1106    0.0000 N   0  0  0  0  0  0  0  0  0  0  0  0
    5.6682   -6.5372    0.0000 C   0  0  0  0  0  0  0  0  0  0  0  0
    6.5498   -7.7508    0.0000 C   0  0  0  0  0  0  0  0  0  0  0  0
    5.6682   -8.9643    0.0000 C   0  0  0  0  0  0  0  0  0  0  0  0
    4.2416   -8.5008    0.0000 C   0  0  0  0  0  0  0  0  0  0  0  0
    3.0280   -9.3824    0.0000 O   0  0  0  0  0  0  0  0  0  0  0  0
    1.6577   -8.7723    0.0000 C   0  0  0  0  0  0  0  0  0  0  0  0
    1.5009   -7.2805    0.0000 O   0  0  0  0  0  0  0  0  0  0  0  0
    0.4442   -9.6540    0.0000 N   0  0  0  0  0  0  0  0  0  0  0  0
   -0.9261   -9.0439    0.0000 C   0  0  0  0  0  0  0  0  0  0  0  0
   -1.0829   -7.5521    0.0000 N   0  0  0  0  0  0  0  0  0  0  0  0
   -2.4532   -6.9420    0.0000 N   0  0  0  0  0  0  0  0  0  0  0  0
   -3.6668   -7.8237    0.0000 N   0  0  0  0  0  0  0  0  0  0  0  0
   -3.5100   -9.3155    0.0000 N   0  0  0  0  0  0  0  0  0  0  0  0
   -2.1396   -9.9256    0.0000 N   0  0  0  0  0  0  0  0  0  0  0  0
    4.2416   -7.0008    0.0000 C   0  0  0  0  0  0  0  0  0  0  0  0
    3.0280   -6.1191    0.0000 O   0  0  0  0  0  0  0  0  0  0  0  0
    0.7500   -1.2990    0.0000 C   0  0  0  0  0  0  0  0  0  0  0  0
    1.5000    0.0000    0.0000 C   0  0  0  0  0  0  0  0  0  0  0  0
    0.7500    1.2990    0.0000 C   0  0  0  0  0  0  0  0  0  0  0  0
   -0.7500    1.2990    0.0000 C   0  0  0  0  0  0  0  0  0  0  0  0
   -1.5000    0.0000    0.0000 C   0  0  0  0  0  0  0  0  0  0  0  0
   -0.7500   -1.2990    0.0000 C   0  0  0  0  0  0  0  0  0  0  0  0
  1  2  1  0
  2  3  2  0
  3  4  1  0
  4  5  2  0
  5  6  1  0
  6  7  1  0
  7  8  2  0
  8  9  1  0
  9 10  2  0
 10 11  1  0
 11 12  2  0
 11 13  1  0
 13 14  1  0
 14 15  2  0
 15 16  1  0
 16 17  2  0
 17 18  1  0
 18 19  1  0
 19 20  2  0
 20 21  1  0
 21 22  2  0
 22 23  1  0
 23 24  1  0
 24 25  2  0
 24 26  1  0
 26 27  1  0
 27 28  2  0
 28 29  1  0
 29 30  2  0
 30 31  1  0
 31 32  2  0
 22 33  1  0
 33 34  2  0
 10 35  1  0
 35 36  2  0
 36 37  1  0
 37 38  2  0
 38 39  1  0
 39 40  2  0
  6  2  1  0
 40  7  1  0
 18 14  1  0
 33 19  1  0
 40 35  1  0
 32 27  1  0
M  END
>  <Title>  (227) 
idAAGUgen14

$$$$

     RDKit          2D

 11 10  0  0  0  0  0  0  0  0999 V2000
    0.0000    0.0000    0.0000 C   0  0  0  0  0  0  0  0  0  0  0  0
    1.2990    0.7500    0.0000 C   0  0  0  0  0  0  0  0  0  0  0  0
    2.5981   -0.0000    0.0000 C   0  0  0  0  0  0  0  0  0  0  0  0
    3.8971    0.7500    0.0000 C   0  0  0  0  0  0  0  0  0  0  0  0
    5.1962   -0.0000    0.0000 C   0  0  0  0  0  0  0  0  0  0  0  0
    6.4952    0.7500    0.0000 C   0  0  0  0  0  0  0  0  0  0  0  0
    7.7942   -0.0000    0.0000 C   0  0  0  0  0  0  0  0  0  0  0  0
    9.0933    0.7500    0.0000 C   0  0  0  0  0  0  0  0  0  0  0  0
   10.3923   -0.0000    0.0000 C   0  0  0  0  0  0  0  0  0  0  0  0
   11.6913    0.7500    0.0000 C   0  0  0  0  0  0  0  0  0  0  0  0
   12.9904   -0.0000    0.0000 C   0  0  0  0  0  0  0  0  0  0  0  0
  1  2  1  0
  2  3  1  0
  3  4  1  0
  4  5  1  0
  5  6  2  3
  6  7  1  0
  7  8  1  0
  8  9  1  0
  9 10  1  0
 10 11  1  0
M  END
>  <Title>  (228) 
idAAGVgen14

$$$$

     RDKit          2D

 99100  0  0  0  0  0  0  0  0999 V2000
   -2.1664   -1.0837    0.0000 C   0  0  0  0  0  0  0  0  0  0  0  0
   -2.4864    0.3818    0.0000 C   0  0  0  0  0  0  0  0  0  0  0  0
   -3.9616    0.1105    0.0000 C   0  0  0  0  0  0  0  0  0  0  0  0
   -5.4516   -0.0628    0.0000 C   0  0  0  0  0  0  0  0  0  0  0  0
   -6.9498   -0.1372    0.0000 C   0  0  0  0  0  0  0  0  0  0  0  0
   -8.4496   -0.1124    0.0000 C   0  0  0  0  0  0  0  0  0  0  0  0
   -9.9444    0.0115    0.0000 C   0  0  0  0  0  0  0  0  0  0  0  0
  -11.4279    0.2339    0.0000 C   0  0  0  0  0  0  0  0  0  0  0  0
  -12.8933    0.5539    0.0000 C   0  0  0  0  0  0  0  0  0  0  0  0
  -14.3345    0.9700    0.0000 C   0  0  0  0  0  0  0  0  0  0  0  0
  -15.7449    1.4804    0.0000 C   0  0  0  0  0  0  0  0  0  0  0  0
  -17.1186    2.0830    0.0000 C   0  0  0  0  0  0  0  0  0  0  0  0
  -18.4494    2.7750    0.0000 C   0  0  0  0  0  0  0  0  0  0  0  0
  -19.7316    3.5534    0.0000 C   0  0  0  0  0  0  0  0  0  0  0  0
  -20.9596    4.4149    0.0000 C   0  0  0  0  0  0  0  0  0  0  0  0
  -22.1279    5.3557    0.0000 C   0  0  0  0  0  0  0  0  0  0  0  0
  -23.2315    6.3716    0.0000 C   0  0  0  0  0  0  0  0  0  0  0  0
  -24.2655    7.4582    0.0000 C   0  0  0  0  0  0  0  0  0  0  0  0
  -25.2255    8.6108    0.0000 C   0  0  0  0  0  0  0  0  0  0  0  0
  -26.1071    9.8244    0.0000 C   0  0  0  0  0  0  0  0  0  0  0  0
  -26.9067   11.0935    0.0000 C   0  0  0  0  0  0  0  0  0  0  0  0
  -27.6206   12.4127    0.0000 C   0  0  0  0  0  0  0  0  0  0  0  0
  -28.2458   13.7762    0.0000 C   0  0  0  0  0  0  0  0  0  0  0  0
  -28.7795   15.1781    0.0000 C   0  0  0  0  0  0  0  0  0  0  0  0
  -29.2193   16.6121    0.0000 C   0  0  0  0  0  0  0  0  0  0  0  0
  -29.5635   18.0721    0.0000 C   0  0  0  0  0  0  0  0  0  0  0  0
  -29.8104   19.5517    0.0000 C   0  0  0  0  0  0  0  0  0  0  0  0
  -29.9589   21.0443    0.0000 C   0  0  0  0  0  0  0  0  0  0  0  0
  -30.0085   22.5435    0.0000 C   0  0  0  0  0  0  0  0  0  0  0  0
  -29.9589   24.0426    0.0000 C   0  0  0  0  0  0  0  0  0  0  0  0
  -29.8104   25.5353    0.0000 C   0  0  0  0  0  0  0  0  0  0  0  0
  -29.5635   27.0148    0.0000 C   0  0  0  0  0  0  0  0  0  0  0  0
  -29.2193   28.4748    0.0000 C   0  0  0  0  0  0  0  0  0  0  0  0
  -28.7795   29.9089    0.0000 C   0  0  0  0  0  0  0  0  0  0  0  0
  -28.2458   31.3107    0.0000 C   0  0  0  0  0  0  0  0  0  0  0  0
  -27.6206   32.6742    0.0000 C   0  0  0  0  0  0  0  0  0  0  0  0
  -26.9067   33.9934    0.0000 C   0  0  0  0  0  0  0  0  0  0  0  0
  -26.1071   35.2626    0.0000 C   0  0  0  0  0  0  0  0  0  0  0  0
  -25.2255   36.4761    0.0000 C   0  0  0  0  0  0  0  0  0  0  0  0
  -24.2655   37.6287    0.0000 C   0  0  0  0  0  0  0  0  0  0  0  0
  -23.2315   38.7153    0.0000 C   0  0  0  0  0  0  0  0  0  0  0  0
  -22.1279   39.7312    0.0000 C   0  0  0  0  0  0  0  0  0  0  0  0
  -20.9596   40.6720    0.0000 C   0  0  0  0  0  0  0  0  0  0  0  0
  -19.7316   41.5335    0.0000 C   0  0  0  0  0  0  0  0  0  0  0  0
  -18.4494   42.3120    0.0000 C   0  0  0  0  0  0  0  0  0  0  0  0
  -17.1186   43.0040    0.0000 C   0  0  0  0  0  0  0  0  0  0  0  0
  -15.7449   43.6065    0.0000 C   0  0  0  0  0  0  0  0  0  0  0  0
  -14.3345   44.1170    0.0000 C   0  0  0  0  0  0  0  0  0  0  0  0
  -12.8933   44.5331    0.0000 C   0  0  0  0  0  0  0  0  0  0  0  0
  -11.4279   44.8530    0.0000 C   0  0  0  0  0  0  0  0  0  0  0  0
   -9.9444   45.0754    0.0000 C   0  0  0  0  0  0  0  0  0  0  0  0
   -8.4496   45.1993    0.0000 C   0  0  0  0  0  0  0  0  0  0  0  0
   -6.9498   45.2241    0.0000 C   0  0  0  0  0  0  0  0  0  0  0  0
   -5.4516   45.1497    0.0000 C   0  0  0  0  0  0  0  0  0  0  0  0
   -3.9616   44.9765    0.0000 C   0  0  0  0  0  0  0  0  0  0  0  0
   -2.4864   44.7052    0.0000 C   0  0  0  0  0  0  0  0  0  0  0  0
   -1.0323   44.3369    0.0000 C   0  0  0  0  0  0  0  0  0  0  0  0
    0.3943   43.8734    0.0000 C   0  0  0  0  0  0  0  0  0  0  0  0
    1.7871   43.3166    0.0000 C   0  0  0  0  0  0  0  0  0  0  0  0
    3.1401   42.6690    0.0000 C   0  0  0  0  0  0  0  0  0  0  0  0
    4.4473   41.9333    0.0000 C   0  0  0  0  0  0  0  0  0  0  0  0
    5.7031   41.1129    0.0000 C   0  0  0  0  0  0  0  0  0  0  0  0
    6.9019   40.2113    0.0000 C   0  0  0  0  0  0  0  0  0  0  0  0
    8.0384   39.2324    0.0000 C   0  0  0  0  0  0  0  0  0  0  0  0
    9.1078   38.1806    0.0000 C   0  0  0  0  0  0  0  0  0  0  0  0
   10.1054   37.0603    0.0000 C   0  0  0  0  0  0  0  0  0  0  0  0
   11.0267   35.8766    0.0000 C   0  0  0  0  0  0  0  0  0  0  0  0
   11.8678   34.6346    0.0000 C   0  0  0  0  0  0  0  0  0  0  0  0
   12.6249   33.3397    0.0000 C   0  0  0  0  0  0  0  0  0  0  0  0
   13.2948   31.9976    0.0000 C   0  0  0  0  0  0  0  0  0  0  0  0
   13.8746   30.6142    0.0000 C   0  0  0  0  0  0  0  0  0  0  0  0
   14.3616   29.1955    0.0000 C   0  0  0  0  0  0  0  0  0  0  0  0
   14.7538   27.7476    0.0000 C   0  0  0  0  0  0  0  0  0  0  0  0
   15.0495   26.2771    0.0000 C   0  0  0  0  0  0  0  0  0  0  0  0
   15.2474   24.7902    0.0000 C   0  0  0  0  0  0  0  0  0  0  0  0
   15.3465   23.2935    0.0000 C   0  0  0  0  0  0  0  0  0  0  0  0
   15.3465   21.7935    0.0000 C   0  0  0  0  0  0  0  0  0  0  0  0
   15.2474   20.2967    0.0000 C   0  0  0  0  0  0  0  0  0  0  0  0
   15.0495   18.8098    0.0000 C   0  0  0  0  0  0  0  0  0  0  0  0
   14.7538   17.3393    0.0000 C   0  0  0  0  0  0  0  0  0  0  0  0
   14.3616   15.8915    0.0000 C   0  0  0  0  0  0  0  0  0  0  0  0
   13.8746   14.4727    0.0000 C   0  0  0  0  0  0  0  0  0  0  0  0
   13.2948   13.0893    0.0000 C   0  0  0  0  0  0  0  0  0  0  0  0
   12.6249   11.7472    0.0000 C   0  0  0  0  0  0  0  0  0  0  0  0
   11.8678   10.4523    0.0000 C   0  0  0  0  0  0  0  0  0  0  0  0
   11.0267    9.2103    0.0000 C   0  0  0  0  0  0  0  0  0  0  0  0
   10.1054    8.0266    0.0000 C   0  0  0  0  0  0  0  0  0  0  0  0
    9.1078    6.9064    0.0000 C   0  0  0  0  0  0  0  0  0  0  0  0
    8.0384    5.8545    0.0000 C   0  0  0  0  0  0  0  0  0  0  0  0
    6.9019    4.8756    0.0000 C   0  0  0  0  0  0  0  0  0  0  0  0
    5.7031    3.9740    0.0000 C   0  0  0  0  0  0  0  0  0  0  0  0
    4.4473    3.1536    0.0000 C   0  0  0  0  0  0  0  0  0  0  0  0
    3.1401    2.4180    0.0000 C   0  0  0  0  0  0  0  0  0  0  0  0
    1.7871    1.7703    0.0000 C   0  0  0  0  0  0  0  0  0  0  0  0
    0.3943    1.2135    0.0000 C   0  0  0  0  0  0  0  0  0  0  0  0
    1.2760    0.0000    0.0000 C   0  0  0  0  0  0  0  0  0  0  0  0
    0.3943   -1.2135    0.0000 C   0  0  0  0  0  0  0  0  0  0  0  0
   -1.0323   -0.7500    0.0000 C   0  0  0  0  0  0  0  0  0  0  0  0
   -1.0323    0.7500    0.0000 C   0  0  0  0  0  0  0  0  0  0  0  0
  1  2  1  0
  2  3  1  0
  3  4  1  0
  4  5  1  0
  5  6  1  0
  6  7  1  0
  7  8  1  0
  8  9  1  0
  9 10  1  0
 10 11  1  0
 11 12  1  0
 12 13  1  0
 13 14  1  0
 14 15  1  0
 15 16  1  0
 16 17  1  0
 17 18  1  0
 18 19  1  0
 19 20  1  0
 20 21  1  0
 21 22  1  0
 22 23  1  0
 23 24  1  0
 24 25  1  0
 25 26  1  0
 26 27  1  0
 27 28  1  0
 28 29  1  0
 29 30  1  0
 30 31  1  0
 31 32  1  0
 32 33  1  0
 33 34  1  0
 34 35  1  0
 35 36  1  0
 36 37  1  0
 37 38  1  0
 38 39  1  0
 39 40  1  0
 40 41  1  0
 41 42  1  0
 42 43  1  0
 43 44  1  0
 44 45  1  0
 45 46  1  0
 46 47  1  0
 47 48  1  0
 48 49  1  0
 49 50  1  0
 50 51  1  0
 51 52  1  0
 52 53  1  0
 53 54  1  0
 54 55  1  0
 55 56  1  0
 56 57  1  0
 57 58  1  0
 58 59  1  0
 59 60  1  0
 60 61  1  0
 61 62  1  0
 62 63  1  0
 63 64  1  0
 64 65  1  0
 65 66  1  0
 66 67  1  0
 67 68  1  0
 68 69  1  0
 69 70  1  0
 70 71  1  0
 71 72  1  0
 72 73  2  0
 73 74  1  0
 74 75  2  0
 75 76  1  0
 76 77  2  0
 77 78  1  0
 78 79  2  0
 79 80  1  0
 80 81  2  0
 81 82  1  0
 82 83  2  0
 83 84  1  0
 84 85  2  0
 85 86  1  0
 86 87  2  0
 87 88  1  0
 88 89  2  0
 89 90  1  0
 90 91  2  0
 91 92  1  0
 92 93  2  0
 93 94  1  0
 94 95  2  0
 95 96  1  0
 96 97  2  0
 97 98  1  0
 98 99  2  0
 99  2  1  0
 99 95  1  0
M  END
>  <Title>  (229) 
idAAGWgen14

$$$$

     RDKit          2D

  9  8  0  0  0  0  0  0  0  0999 V2000
    0.0000    0.0000    0.0000 C   0  0  0  0  0  0  0  0  0  0  0  0
    1.2990    0.7500    0.0000 C   0  0  0  0  0  0  0  0  0  0  0  0
    2.5981   -0.0000    0.0000 C   0  0  0  0  0  0  0  0  0  0  0  0
    3.8971    0.7500    0.0000 C   0  0  0  0  0  0  0  0  0  0  0  0
    5.1962   -0.0000    0.0000 C   0  0  0  0  0  0  0  0  0  0  0  0
    6.4952    0.7500    0.0000 C   0  0  0  0  0  0  0  0  0  0  0  0
    7.7942   -0.0000    0.0000 C   0  0  0  0  0  0  0  0  0  0  0  0
    9.0933    0.7500    0.0000 C   0  0  0  0  0  0  0  0  0  0  0  0
    7.7942   -1.5000    0.0000 C   0  0  0  0  0  0  0  0  0  0  0  0
  1  2  2  0
  2  3  1  0
  3  4  1  0
  4  5  1  0
  5  6  1  0
  6  7  1  0
  7  8  1  0
  7  9  1  0
M  END
>  <Title>  (230) 
idAAGXgen14

$$$$

     RDKit          2D

 37 41  0  0  0  0  0  0  0  0999 V2000
   -3.1476   -2.1380    0.0000 C   0  0  0  0  0  0  0  0  0  0  0  0
   -1.6852   -2.4718    0.0000 C   0  0  0  0  0  0  0  0  0  0  0  0
   -1.3515   -3.9342    0.0000 C   0  0  0  0  0  0  0  0  0  0  0  0
   -0.0000   -4.5850    0.0000 C   0  0  0  0  0  0  0  0  0  0  0  0
    1.3515   -3.9342    0.0000 C   0  0  0  0  0  0  0  0  0  0  0  0
    1.6852   -2.4718    0.0000 C   0  0  0  0  0  0  0  0  0  0  0  0
    3.1476   -2.1380    0.0000 C   0  0  0  0  0  0  0  0  0  0  0  0
    3.5898   -0.7046    0.0000 O   0  0  0  0  0  0  0  0  0  0  0  0
    4.1679   -3.2376    0.0000 N   0  0  0  0  0  0  0  0  0  0  0  0
    5.6303   -2.9038    0.0000 C   0  0  0  0  0  0  0  0  0  0  0  0
    6.2198   -1.5245    0.0000 N   0  0  0  0  0  0  0  0  0  0  0  0
    7.7138   -1.6590    0.0000 N   0  0  0  0  0  0  0  0  0  0  0  0
    8.0476   -3.1214    0.0000 N   0  0  0  0  0  0  0  0  0  0  0  0
    6.7599   -3.8907    0.0000 N   0  0  0  0  0  0  0  0  0  0  0  0
    6.6254   -5.3847    0.0000 C   0  0  0  0  0  0  0  0  0  0  0  0
    7.7550   -6.3716    0.0000 C   0  0  0  0  0  0  0  0  0  0  0  0
    7.1655   -7.7509    0.0000 C   0  0  0  0  0  0  0  0  0  0  0  0
    5.6715   -7.6164    0.0000 C   0  0  0  0  0  0  0  0  0  0  0  0
    4.6846   -8.7460    0.0000 C   0  0  0  0  0  0  0  0  0  0  0  0
    5.1694  -10.1655    0.0000 O   0  0  0  0  0  0  0  0  0  0  0  0
    3.2129   -8.4561    0.0000 N   0  0  0  0  0  0  0  0  0  0  0  0
    2.2260   -9.5857    0.0000 C   0  0  0  0  0  0  0  0  0  0  0  0
    0.7543   -9.2959    0.0000 N   0  0  0  0  0  0  0  0  0  0  0  0
   -0.2326  -10.4255    0.0000 N   0  0  0  0  0  0  0  0  0  0  0  0
    0.2522  -11.8450    0.0000 N   0  0  0  0  0  0  0  0  0  0  0  0
    1.7239  -12.1348    0.0000 N   0  0  0  0  0  0  0  0  0  0  0  0
    2.7108  -11.0052    0.0000 N   0  0  0  0  0  0  0  0  0  0  0  0
    5.3378   -6.1540    0.0000 C   0  0  0  0  0  0  0  0  0  0  0  0
    3.9585   -5.5645    0.0000 O   0  0  0  0  0  0  0  0  0  0  0  0
    0.7500   -1.2990    0.0000 C   0  0  0  0  0  0  0  0  0  0  0  0
    1.5000    0.0000    0.0000 C   0  0  0  0  0  0  0  0  0  0  0  0
    0.7500    1.2990    0.0000 C   0  0  0  0  0  0  0  0  0  0  0  0
   -0.7500    1.2990    0.0000 C   0  0  0  0  0  0  0  0  0  0  0  0
   -1.5000    2.5981    0.0000 C   0  0  0  0  0  0  0  0  0  0  0  0
   -2.2500    3.8971    0.0000 N   0  0  0  0  0  0  0  0  0  0  0  0
   -1.5000    0.0000    0.0000 C   0  0  0  0  0  0  0  0  0  0  0  0
   -0.7500   -1.2990    0.0000 C   0  0  0  0  0  0  0  0  0  0  0  0
  1  2  1  0
  2  3  2  0
  3  4  1  0
  4  5  1  0
  5  6  2  0
  6  7  1  0
  7  8  2  0
  7  9  1  0
  9 10  1  0
 10 11  2  0
 11 12  1  0
 12 13  2  0
 13 14  1  0
 14 15  1  0
 15 16  2  0
 16 17  1  0
 17 18  2  0
 18 19  1  0
 19 20  2  0
 19 21  1  0
 21 22  1  0
 22 23  2  0
 23 24  1  0
 24 25  2  0
 25 26  1  0
 26 27  2  0
 18 28  1  0
 28 29  2  0
  6 30  1  0
 30 31  2  0
 31 32  1  0
 32 33  2  0
 33 34  1  0
 34 35  3  0
 33 36  1  0
 36 37  2  0
 37  2  1  0
 14 10  1  0
 28 15  1  0
 37 30  1  0
 27 22  1  0
M  END
>  <Title>  (231) 
idAAGYgen14

$$$$

     RDKit          2D

 36 40  0  0  0  0  0  0  0  0999 V2000
   -3.1965   -1.7857    0.0000 C   0  0  0  0  0  0  0  0  0  0  0  0
   -1.8107   -2.3597    0.0000 C   0  0  0  0  0  0  0  0  0  0  0  0
   -1.8107   -3.8597    0.0000 C   0  0  0  0  0  0  0  0  0  0  0  0
   -0.7500   -4.9204    0.0000 C   0  0  0  0  0  0  0  0  0  0  0  0
    0.7500   -4.9204    0.0000 C   0  0  0  0  0  0  0  0  0  0  0  0
    1.8107   -3.8597    0.0000 C   0  0  0  0  0  0  0  0  0  0  0  0
    1.8107   -2.3597    0.0000 C   0  0  0  0  0  0  0  0  0  0  0  0
    3.1965   -1.7857    0.0000 C   0  0  0  0  0  0  0  0  0  0  0  0
    3.3923   -0.2985    0.0000 O   0  0  0  0  0  0  0  0  0  0  0  0
    4.3865   -2.6988    0.0000 N   0  0  0  0  0  0  0  0  0  0  0  0
    5.7723   -2.1248    0.0000 C   0  0  0  0  0  0  0  0  0  0  0  0
    6.1225   -0.6662    0.0000 N   0  0  0  0  0  0  0  0  0  0  0  0
    7.6179   -0.5485    0.0000 N   0  0  0  0  0  0  0  0  0  0  0  0
    8.1919   -1.9344    0.0000 N   0  0  0  0  0  0  0  0  0  0  0  0
    7.0513   -2.9085    0.0000 N   0  0  0  0  0  0  0  0  0  0  0  0
    7.1690   -4.4039    0.0000 N   0  0  0  0  0  0  0  0  0  0  0  0
    8.4479   -5.1877    0.0000 C   0  0  0  0  0  0  0  0  0  0  0  0
    8.0978   -6.6462    0.0000 C   0  0  0  0  0  0  0  0  0  0  0  0
    6.6024   -6.7639    0.0000 C   0  0  0  0  0  0  0  0  0  0  0  0
    5.8186   -8.0429    0.0000 C   0  0  0  0  0  0  0  0  0  0  0  0
    6.5344   -9.3611    0.0000 O   0  0  0  0  0  0  0  0  0  0  0  0
    4.3192   -8.0036    0.0000 N   0  0  0  0  0  0  0  0  0  0  0  0
    3.5354   -9.2826    0.0000 C   0  0  0  0  0  0  0  0  0  0  0  0
    2.0359   -9.2433    0.0000 N   0  0  0  0  0  0  0  0  0  0  0  0
    1.2522  -10.5223    0.0000 N   0  0  0  0  0  0  0  0  0  0  0  0
    1.9679  -11.8405    0.0000 N   0  0  0  0  0  0  0  0  0  0  0  0
    3.4674  -11.8797    0.0000 N   0  0  0  0  0  0  0  0  0  0  0  0
    4.2512  -10.6008    0.0000 N   0  0  0  0  0  0  0  0  0  0  0  0
    6.0284   -5.3781    0.0000 C   0  0  0  0  0  0  0  0  0  0  0  0
    4.5698   -5.0279    0.0000 O   0  0  0  0  0  0  0  0  0  0  0  0
    0.7500   -1.2990    0.0000 C   0  0  0  0  0  0  0  0  0  0  0  0
    1.5000    0.0000    0.0000 C   0  0  0  0  0  0  0  0  0  0  0  0
    0.7500    1.2990    0.0000 C   0  0  0  0  0  0  0  0  0  0  0  0
   -0.7500    1.2990    0.0000 C   0  0  0  0  0  0  0  0  0  0  0  0
   -1.5000    0.0000    0.0000 C   0  0  0  0  0  0  0  0  0  0  0  0
   -0.7500   -1.2990    0.0000 C   0  0  0  0  0  0  0  0  0  0  0  0
  1  2  1  0
  2  3  1  0
  3  4  1  0
  4  5  1  0
  5  6  1  0
  6  7  1  0
  7  8  1  0
  8  9  2  0
  8 10  1  0
 10 11  1  0
 11 12  2  0
 12 13  1  0
 13 14  2  0
 14 15  1  0
 15 16  1  0
 16 17  1  0
 17 18  1  0
 18 19  1  0
 19 20  1  0
 20 21  2  0
 20 22  1  0
 22 23  1  0
 23 24  2  0
 24 25  1  0
 25 26  2  0
 26 27  1  0
 27 28  2  0
 19 29  1  0
 29 30  2  0
  7 31  1  0
 31 32  2  0
 32 33  1  0
 33 34  2  0
 34 35  1  0
 35 36  2  0
 36  2  1  0
 15 11  1  0
 29 16  1  0
 36 31  1  0
 28 23  1  0
M  END
>  <Title>  (232) 
idAAGZgen14

$$$$

     RDKit          2D

 34 38  0  0  0  0  0  0  0  0999 V2000
   -3.0000   -2.5981    0.0000 C   0  0  0  0  0  0  0  0  0  0  0  0
   -1.5000   -2.5981    0.0000 C   0  0  0  0  0  0  0  0  0  0  0  0
   -0.7500   -3.8971    0.0000 C   0  0  0  0  0  0  0  0  0  0  0  0
    0.7500   -3.8971    0.0000 C   0  0  0  0  0  0  0  0  0  0  0  0
    1.5000   -2.5981    0.0000 C   0  0  0  0  0  0  0  0  0  0  0  0
    3.0000   -2.5981    0.0000 C   0  0  0  0  0  0  0  0  0  0  0  0
    3.7500   -1.2990    0.0000 O   0  0  0  0  0  0  0  0  0  0  0  0
    3.7500   -3.8971    0.0000 N   0  0  0  0  0  0  0  0  0  0  0  0
    5.2500   -3.8971    0.0000 C   0  0  0  0  0  0  0  0  0  0  0  0
    6.1317   -2.6836    0.0000 N   0  0  0  0  0  0  0  0  0  0  0  0
    7.5583   -3.1471    0.0000 N   0  0  0  0  0  0  0  0  0  0  0  0
    7.5583   -4.6471    0.0000 N   0  0  0  0  0  0  0  0  0  0  0  0
    6.1317   -5.1106    0.0000 N   0  0  0  0  0  0  0  0  0  0  0  0
    5.6682   -6.5372    0.0000 N   0  0  0  0  0  0  0  0  0  0  0  0
    6.5498   -7.7508    0.0000 C   0  0  0  0  0  0  0  0  0  0  0  0
    5.6682   -8.9643    0.0000 C   0  0  0  0  0  0  0  0  0  0  0  0
    4.2416   -8.5008    0.0000 C   0  0  0  0  0  0  0  0  0  0  0  0
    3.0280   -9.3824    0.0000 C   0  0  0  0  0  0  0  0  0  0  0  0
    3.1848  -10.8742    0.0000 O   0  0  0  0  0  0  0  0  0  0  0  0
    1.6577   -8.7723    0.0000 N   0  0  0  0  0  0  0  0  0  0  0  0
    0.4442   -9.6540    0.0000 C   0  0  0  0  0  0  0  0  0  0  0  0
   -0.9261   -9.0439    0.0000 N   0  0  0  0  0  0  0  0  0  0  0  0
   -2.1396   -9.9256    0.0000 N   0  0  0  0  0  0  0  0  0  0  0  0
   -1.9829  -11.4174    0.0000 N   0  0  0  0  0  0  0  0  0  0  0  0
   -0.6125  -12.0275    0.0000 N   0  0  0  0  0  0  0  0  0  0  0  0
    0.6010  -11.1458    0.0000 N   0  0  0  0  0  0  0  0  0  0  0  0
    4.2416   -7.0008    0.0000 C   0  0  0  0  0  0  0  0  0  0  0  0
    3.0280   -6.1191    0.0000 O   0  0  0  0  0  0  0  0  0  0  0  0
    0.7500   -1.2990    0.0000 C   0  0  0  0  0  0  0  0  0  0  0  0
    1.5000    0.0000    0.0000 C   0  0  0  0  0  0  0  0  0  0  0  0
    0.7500    1.2990    0.0000 C   0  0  0  0  0  0  0  0  0  0  0  0
   -0.7500    1.2990    0.0000 C   0  0  0  0  0  0  0  0  0  0  0  0
   -1.5000    0.0000    0.0000 C   0  0  0  0  0  0  0  0  0  0  0  0
   -0.7500   -1.2990    0.0000 C   0  0  0  0  0  0  0  0  0  0  0  0
  1  2  1  0
  2  3  2  0
  3  4  1  0
  4  5  2  0
  5  6  1  0
  6  7  2  0
  6  8  1  0
  8  9  1  0
  9 10  2  0
 10 11  1  0
 11 12  2  0
 12 13  1  0
 13 14  1  0
 14 15  1  0
 15 16  1  0
 16 17  1  0
 17 18  1  0
 18 19  2  0
 18 20  1  0
 20 21  1  0
 21 22  2  0
 22 23  1  0
 23 24  2  0
 24 25  1  0
 25 26  2  0
 17 27  1  0
 27 28  2  0
  5 29  1  0
 29 30  2  0
 30 31  1  0
 31 32  2  0
 32 33  1  0
 33 34  2  0
 34  2  1  0
 13  9  1  0
 27 14  1  0
 34 29  1  0
 26 21  1  0
M  END
>  <Title>  (233) 
idAAHAgen14

$$$$

     RDKit          2D

 12 11  0  0  0  0  0  0  0  0999 V2000
    0.0000    0.0000    0.0000 C   0  0  0  0  0  0  0  0  0  0  0  0
    1.2990    0.7500    0.0000 C   0  0  0  0  0  0  0  0  0  0  0  0
    2.5981   -0.0000    0.0000 C   0  0  0  0  0  0  0  0  0  0  0  0
    3.8971    0.7500    0.0000 C   0  0  0  0  0  0  0  0  0  0  0  0
    3.8971    2.2500    0.0000 O   0  0  0  0  0  0  0  0  0  0  0  0
    5.1962   -0.0000    0.0000 N   0  0  0  0  0  0  0  0  0  0  0  0
    6.4952    0.7500    0.0000 C   0  0  0  0  0  0  0  0  0  0  0  0
    7.7942   -0.0000    0.0000 C   0  0  0  0  0  0  0  0  0  0  0  0
    6.4952    2.2500    0.0000 C   0  0  0  0  0  0  0  0  0  0  0  0
    7.7942    3.0000    0.0000 C   0  0  0  0  0  0  0  0  0  0  0  0
    7.7942    4.5000    0.0000 C   0  0  0  0  0  0  0  0  0  0  0  0
    9.0933    2.2500    0.0000 C   0  0  0  0  0  0  0  0  0  0  0  0
  1  2  1  0
  2  3  1  0
  3  4  1  0
  4  5  2  0
  4  6  1  0
  6  7  1  0
  7  8  1  0
  7  9  1  0
  9 10  1  0
 10 11  1  0
 10 12  1  0
M  END
>  <Title>  (234) 
idAAHBgen14

$$$$

     RDKit          2D

 43 47  0  0  0  0  0  0  0  0999 V2000
   -6.7865   -7.9697    0.0000 C   0  0  0  0  0  0  0  0  0  0  0  0
   -7.2287   -6.5363    0.0000 C   0  0  0  0  0  0  0  0  0  0  0  0
   -6.2084   -5.4367    0.0000 C   0  0  0  0  0  0  0  0  0  0  0  0
   -6.6505   -4.0034    0.0000 C   0  0  0  0  0  0  0  0  0  0  0  0
   -8.1129   -3.6696    0.0000 C   0  0  0  0  0  0  0  0  0  0  0  0
   -5.6303   -2.9038    0.0000 N   0  0  0  0  0  0  0  0  0  0  0  0
   -4.1679   -3.2376    0.0000 C   0  0  0  0  0  0  0  0  0  0  0  0
   -3.7258   -4.6709    0.0000 O   0  0  0  0  0  0  0  0  0  0  0  0
   -3.1476   -2.1380    0.0000 N   0  0  0  0  0  0  0  0  0  0  0  0
   -1.6852   -2.4718    0.0000 C   0  0  0  0  0  0  0  0  0  0  0  0
   -1.3515   -3.9342    0.0000 C   0  0  0  0  0  0  0  0  0  0  0  0
   -0.0000   -4.5850    0.0000 C   0  0  0  0  0  0  0  0  0  0  0  0
    1.3515   -3.9342    0.0000 C   0  0  0  0  0  0  0  0  0  0  0  0
    1.6852   -2.4718    0.0000 C   0  0  0  0  0  0  0  0  0  0  0  0
    3.1476   -2.1380    0.0000 C   0  0  0  0  0  0  0  0  0  0  0  0
    3.5898   -0.7046    0.0000 O   0  0  0  0  0  0  0  0  0  0  0  0
    4.1679   -3.2376    0.0000 N   0  0  0  0  0  0  0  0  0  0  0  0
    5.6303   -2.9038    0.0000 C   0  0  0  0  0  0  0  0  0  0  0  0
    6.2198   -1.5245    0.0000 N   0  0  0  0  0  0  0  0  0  0  0  0
    7.7138   -1.6590    0.0000 N   0  0  0  0  0  0  0  0  0  0  0  0
    8.0476   -3.1214    0.0000 N   0  0  0  0  0  0  0  0  0  0  0  0
    6.7599   -3.8907    0.0000 N   0  0  0  0  0  0  0  0  0  0  0  0
    6.6254   -5.3847    0.0000 N   0  0  0  0  0  0  0  0  0  0  0  0
    7.7550   -6.3716    0.0000 C   0  0  0  0  0  0  0  0  0  0  0  0
    7.1655   -7.7509    0.0000 C   0  0  0  0  0  0  0  0  0  0  0  0
    5.6715   -7.6164    0.0000 N   0  0  0  0  0  0  0  0  0  0  0  0
    4.6846   -8.7460    0.0000 C   0  0  0  0  0  0  0  0  0  0  0  0
    5.1694  -10.1655    0.0000 O   0  0  0  0  0  0  0  0  0  0  0  0
    3.2129   -8.4561    0.0000 N   0  0  0  0  0  0  0  0  0  0  0  0
    2.2260   -9.5857    0.0000 C   0  0  0  0  0  0  0  0  0  0  0  0
    0.7543   -9.2959    0.0000 N   0  0  0  0  0  0  0  0  0  0  0  0
   -0.2326  -10.4255    0.0000 N   0  0  0  0  0  0  0  0  0  0  0  0
    0.2522  -11.8450    0.0000 N   0  0  0  0  0  0  0  0  0  0  0  0
    1.7239  -12.1348    0.0000 N   0  0  0  0  0  0  0  0  0  0  0  0
    2.7108  -11.0052    0.0000 N   0  0  0  0  0  0  0  0  0  0  0  0
    5.3378   -6.1540    0.0000 C   0  0  0  0  0  0  0  0  0  0  0  0
    3.9585   -5.5645    0.0000 O   0  0  0  0  0  0  0  0  0  0  0  0
    0.7500   -1.2990    0.0000 C   0  0  0  0  0  0  0  0  0  0  0  0
    1.5000    0.0000    0.0000 C   0  0  0  0  0  0  0  0  0  0  0  0
    0.7500    1.2990    0.0000 C   0  0  0  0  0  0  0  0  0  0  0  0
   -0.7500    1.2990    0.0000 C   0  0  0  0  0  0  0  0  0  0  0  0
   -1.5000    0.0000    0.0000 C   0  0  0  0  0  0  0  0  0  0  0  0
   -0.7500   -1.2990    0.0000 C   0  0  0  0  0  0  0  0  0  0  0  0
  1  2  1  0
  2  3  1  0
  3  4  1  0
  4  5  1  0
  4  6  1  0
  6  7  1  0
  7  8  2  0
  7  9  1  0
  9 10  1  0
 10 11  2  0
 11 12  1  0
 12 13  1  0
 13 14  1  0
 14 15  1  0
 15 16  2  0
 15 17  1  0
 17 18  1  0
 18 19  2  0
 19 20  1  0
 20 21  2  0
 21 22  1  0
 22 23  1  0
 23 24  1  0
 24 25  1  0
 25 26  1  0
 26 27  1  0
 27 28  2  0
 27 29  1  0
 29 30  1  0
 30 31  2  0
 31 32  1  0
 32 33  2  0
 33 34  1  0
 34 35  2  0
 26 36  1  0
 36 37  2  0
 14 38  1  0
 38 39  2  0
 39 40  1  0
 40 41  2  0
 41 42  1  0
 42 43  2  0
 43 10  1  0
 22 18  1  0
 36 23  1  0
 43 38  1  0
 35 30  1  0
M  END
>  <Title>  (235) 
idAAHCgen14

$$$$

     RDKit          2D

 13 13  0  0  0  0  0  0  0  0999 V2000
    3.0000    6.0000    0.0000 C   0  0  0  0  0  0  0  0  0  0  0  0
    3.0000    4.5000    0.0000 C   0  0  0  0  0  0  0  0  0  0  0  0
    3.0000    3.0000    0.0000 C   0  0  0  0  0  0  0  0  0  0  0  0
    3.0000    1.5000    0.0000 C   0  0  0  0  0  0  0  0  0  0  0  0
    3.0000    0.0000    0.0000 C   0  0  0  0  0  0  0  0  0  0  0  0
    4.5000    0.0000    0.0000 C   0  0  0  0  0  0  0  0  0  0  0  0
    3.0000   -1.5000    0.0000 O   0  0  0  0  0  0  0  0  0  0  0  0
    1.5000    0.0000    0.0000 C   0  0  0  0  0  0  0  0  0  0  0  0
    0.7500   -1.2990    0.0000 C   0  0  0  0  0  0  0  0  0  0  0  0
   -0.7500   -1.2990    0.0000 C   0  0  0  0  0  0  0  0  0  0  0  0
   -1.5000    0.0000    0.0000 C   0  0  0  0  0  0  0  0  0  0  0  0
   -0.7500    1.2990    0.0000 C   0  0  0  0  0  0  0  0  0  0  0  0
    0.7500    1.2990    0.0000 C   0  0  0  0  0  0  0  0  0  0  0  0
  1  2  3  0
  2  3  1  0
  3  4  3  0
  4  5  1  0
  5  6  1  0
  5  7  1  0
  5  8  1  0
  8  9  2  0
  9 10  1  0
 10 11  2  0
 11 12  1  0
 12 13  2  0
 13  8  1  0
M  END
>  <Title>  (236) 
idAAHDgen14

$$$$

     RDKit          2D

  6  6  0  0  0  0  0  0  0  0999 V2000
    2.7760    0.0000    0.0000 O   0  0  0  0  0  0  0  0  0  0  0  0
    1.2760    0.0000    0.0000 C   0  0  0  0  0  0  0  0  0  0  0  0
    0.3943    1.2135    0.0000 C   0  0  0  0  0  0  0  0  0  0  0  0
   -1.0323    0.7500    0.0000 C   0  0  0  0  0  0  0  0  0  0  0  0
   -1.0323   -0.7500    0.0000 C   0  0  0  0  0  0  0  0  0  0  0  0
    0.3943   -1.2135    0.0000 N   0  0  0  0  0  0  0  0  0  0  0  0
  1  2  1  0
  2  3  2  0
  3  4  1  0
  4  5  1  0
  5  6  2  0
  6  2  1  0
M  END
>  <Title>  (237) 
idAAHEgen14

$$$$

     RDKit          2D

 91 92  0  0  0  0  0  0  0  0999 V2000
    6.8029    4.3383    0.0000 C   0  0  0  0  0  0  0  0  0  0  0  0
    7.5958    4.4210    0.0000 C   0  0  0  0  0  0  0  0  0  0  0  0
    7.5226    5.9192    0.0000 C   0  0  0  0  0  0  0  0  0  0  0  0
    7.6147    7.4164    0.0000 C   0  0  0  0  0  0  0  0  0  0  0  0
    7.8709    8.8943    0.0000 C   0  0  0  0  0  0  0  0  0  0  0  0
    8.2881   10.3351    0.0000 C   0  0  0  0  0  0  0  0  0  0  0  0
    8.8613   11.7213    0.0000 C   0  0  0  0  0  0  0  0  0  0  0  0
    9.5835   13.0360    0.0000 C   0  0  0  0  0  0  0  0  0  0  0  0
   10.4460   14.2632    0.0000 C   0  0  0  0  0  0  0  0  0  0  0  0
   11.4382   15.3882    0.0000 C   0  0  0  0  0  0  0  0  0  0  0  0
   12.5482   16.3971    0.0000 C   0  0  0  0  0  0  0  0  0  0  0  0
   13.7624   17.2778    0.0000 C   0  0  0  0  0  0  0  0  0  0  0  0
   15.0661   18.0196    0.0000 C   0  0  0  0  0  0  0  0  0  0  0  0
   16.4436   18.6135    0.0000 C   0  0  0  0  0  0  0  0  0  0  0  0
   17.8780   19.0523    0.0000 C   0  0  0  0  0  0  0  0  0  0  0  0
   19.3519   19.3305    0.0000 C   0  0  0  0  0  0  0  0  0  0  0  0
   20.8475   19.4450    0.0000 C   0  0  0  0  0  0  0  0  0  0  0  0
   22.3467   19.3942    0.0000 C   0  0  0  0  0  0  0  0  0  0  0  0
   23.8311   19.1788    0.0000 C   0  0  0  0  0  0  0  0  0  0  0  0
   25.2829   18.8015    0.0000 C   0  0  0  0  0  0  0  0  0  0  0  0
   26.6843   18.2667    0.0000 C   0  0  0  0  0  0  0  0  0  0  0  0
   28.0184   17.5809    0.0000 C   0  0  0  0  0  0  0  0  0  0  0  0
   29.2690   16.7526    0.0000 C   0  0  0  0  0  0  0  0  0  0  0  0
   30.4208   15.7918    0.0000 C   0  0  0  0  0  0  0  0  0  0  0  0
   31.4600   14.7100    0.0000 C   0  0  0  0  0  0  0  0  0  0  0  0
   32.3738   13.5205    0.0000 C   0  0  0  0  0  0  0  0  0  0  0  0
   33.1513   12.2377    0.0000 C   0  0  0  0  0  0  0  0  0  0  0  0
   33.7829   10.8772    0.0000 C   0  0  0  0  0  0  0  0  0  0  0  0
   34.2610    9.4554    0.0000 C   0  0  0  0  0  0  0  0  0  0  0  0
   34.5798    7.9897    0.0000 C   0  0  0  0  0  0  0  0  0  0  0  0
   34.7354    6.4978    0.0000 C   0  0  0  0  0  0  0  0  0  0  0  0
   34.7259    4.9978    0.0000 C   0  0  0  0  0  0  0  0  0  0  0  0
   34.5515    3.5080    0.0000 C   0  0  0  0  0  0  0  0  0  0  0  0
   34.2143    2.0464    0.0000 C   0  0  0  0  0  0  0  0  0  0  0  0
   33.7183    0.6308    0.0000 C   0  0  0  0  0  0  0  0  0  0  0  0
   33.0696   -0.7217    0.0000 C   0  0  0  0  0  0  0  0  0  0  0  0
   32.2761   -1.9946    0.0000 C   0  0  0  0  0  0  0  0  0  0  0  0
   31.3473   -3.1725    0.0000 C   0  0  0  0  0  0  0  0  0  0  0  0
   30.2946   -4.2411    0.0000 C   0  0  0  0  0  0  0  0  0  0  0  0
   29.1308   -5.1873    0.0000 C   0  0  0  0  0  0  0  0  0  0  0  0
   27.8699   -5.9998    0.0000 C   0  0  0  0  0  0  0  0  0  0  0  0
   26.5273   -6.6687    0.0000 C   0  0  0  0  0  0  0  0  0  0  0  0
   25.1192   -7.1858    0.0000 C   0  0  0  0  0  0  0  0  0  0  0  0
   23.6628   -7.5449    0.0000 C   0  0  0  0  0  0  0  0  0  0  0  0
   22.1758   -7.7415    0.0000 C   0  0  0  0  0  0  0  0  0  0  0  0
   20.6761   -7.7734    0.0000 C   0  0  0  0  0  0  0  0  0  0  0  0
   19.1820   -7.6401    0.0000 C   0  0  0  0  0  0  0  0  0  0  0  0
   17.7117   -7.3433    0.0000 C   0  0  0  0  0  0  0  0  0  0  0  0
   16.2829   -6.8865    0.0000 C   0  0  0  0  0  0  0  0  0  0  0  0
   14.9131   -6.2753    0.0000 C   0  0  0  0  0  0  0  0  0  0  0  0
   13.6188   -5.5172    0.0000 C   0  0  0  0  0  0  0  0  0  0  0  0
   12.4158   -4.6212    0.0000 C   0  0  0  0  0  0  0  0  0  0  0  0
   11.3186   -3.5984    0.0000 C   0  0  0  0  0  0  0  0  0  0  0  0
   10.3406   -2.4610    0.0000 C   0  0  0  0  0  0  0  0  0  0  0  0
    9.4937   -1.2230    0.0000 C   0  0  0  0  0  0  0  0  0  0  0  0
    8.7881    0.1007    0.0000 C   0  0  0  0  0  0  0  0  0  0  0  0
    8.2324    1.4940    0.0000 C   0  0  0  0  0  0  0  0  0  0  0  0
    7.6669   -0.0000    0.0000 C   0  0  0  0  0  0  0  0  0  0  0  0
    7.5437   -1.3690    0.0000 C   0  0  0  0  0  0  0  0  0  0  0  0
    7.1780   -2.6939    0.0000 C   0  0  0  0  0  0  0  0  0  0  0  0
    6.5816   -3.9323    0.0000 C   0  0  0  0  0  0  0  0  0  0  0  0
    5.7737   -5.0443    0.0000 C   0  0  0  0  0  0  0  0  0  0  0  0
    4.7802   -5.9942    0.0000 C   0  0  0  0  0  0  0  0  0  0  0  0
    3.6331   -6.7514    0.0000 C   0  0  0  0  0  0  0  0  0  0  0  0
    2.3692   -7.2916    0.0000 C   0  0  0  0  0  0  0  0  0  0  0  0
    1.0291   -7.5975    0.0000 C   0  0  0  0  0  0  0  0  0  0  0  0
   -0.3440   -7.6591    0.0000 C   0  0  0  0  0  0  0  0  0  0  0  0
   -1.7060   -7.4746    0.0000 C   0  0  0  0  0  0  0  0  0  0  0  0
   -3.0133   -7.0499    0.0000 C   0  0  0  0  0  0  0  0  0  0  0  0
   -4.2237   -6.3986    0.0000 C   0  0  0  0  0  0  0  0  0  0  0  0
   -5.2983   -5.5416    0.0000 C   0  0  0  0  0  0  0  0  0  0  0  0
   -6.2026   -4.5065    0.0000 C   0  0  0  0  0  0  0  0  0  0  0  0
   -6.9076   -3.3265    0.0000 C   0  0  0  0  0  0  0  0  0  0  0  0
   -7.3906   -2.0397    0.0000 C   0  0  0  0  0  0  0  0  0  0  0  0
   -7.6360   -0.6873    0.0000 C   0  0  0  0  0  0  0  0  0  0  0  0
   -7.6360    0.6873    0.0000 C   0  0  0  0  0  0  0  0  0  0  0  0
   -7.3906    2.0397    0.0000 C   0  0  0  0  0  0  0  0  0  0  0  0
   -6.9076    3.3265    0.0000 C   0  0  0  0  0  0  0  0  0  0  0  0
   -6.2026    4.5065    0.0000 C   0  0  0  0  0  0  0  0  0  0  0  0
   -5.2983    5.5416    0.0000 C   0  0  0  0  0  0  0  0  0  0  0  0
   -4.2237    6.3986    0.0000 C   0  0  0  0  0  0  0  0  0  0  0  0
   -3.0133    7.0499    0.0000 C   0  0  0  0  0  0  0  0  0  0  0  0
   -1.7060    7.4746    0.0000 C   0  0  0  0  0  0  0  0  0  0  0  0
   -0.3440    7.6591    0.0000 C   0  0  0  0  0  0  0  0  0  0  0  0
    1.0291    7.5975    0.0000 C   0  0  0  0  0  0  0  0  0  0  0  0
    2.3692    7.2916    0.0000 C   0  0  0  0  0  0  0  0  0  0  0  0
    3.6331    6.7514    0.0000 C   0  0  0  0  0  0  0  0  0  0  0  0
    4.7802    5.9942    0.0000 C   0  0  0  0  0  0  0  0  0  0  0  0
    5.7737    5.0443    0.0000 C   0  0  0  0  0  0  0  0  0  0  0  0
    6.5816    3.9323    0.0000 C   0  0  0  0  0  0  0  0  0  0  0  0
    7.8334    2.9399    0.0000 C   0  0  0  0  0  0  0  0  0  0  0  0
  1  2  1  0
  2  3  1  0
  3  4  1  0
  4  5  1  0
  5  6  1  0
  6  7  1  0
  7  8  1  0
  8  9  1  0
  9 10  1  0
 10 11  1  0
 11 12  1  0
 12 13  1  0
 13 14  1  0
 14 15  1  0
 15 16  1  0
 16 17  1  0
 17 18  1  0
 18 19  1  0
 19 20  1  0
 20 21  1  0
 21 22  1  0
 22 23  1  0
 23 24  1  0
 24 25  1  0
 25 26  1  0
 26 27  1  0
 27 28  1  0
 28 29  1  0
 29 30  1  0
 30 31  1  0
 31 32  1  0
 32 33  1  0
 33 34  1  0
 34 35  1  0
 35 36  1  0
 36 37  1  0
 37 38  1  0
 38 39  1  0
 39 40  1  0
 40 41  1  0
 41 42  1  0
 42 43  1  0
 43 44  1  0
 44 45  1  0
 45 46  1  0
 46 47  1  0
 47 48  1  0
 48 49  1  0
 49 50  1  0
 50 51  1  0
 51 52  1  0
 52 53  2  0
 53 54  1  0
 54 55  2  0
 55 56  1  0
 56 57  2  0
 57 58  1  0
 58 59  2  0
 59 60  1  0
 60 61  2  0
 61 62  1  0
 62 63  2  0
 63 64  1  0
 64 65  2  0
 65 66  1  0
 66 67  2  0
 67 68  1  0
 68 69  2  0
 69 70  1  0
 70 71  2  0
 71 72  1  0
 72 73  2  0
 73 74  1  0
 74 75  2  0
 75 76  1  0
 76 77  2  0
 77 78  1  0
 78 79  2  0
 79 80  1  0
 80 81  2  0
 81 82  1  0
 82 83  2  0
 83 84  1  0
 84 85  2  0
 85 86  1  0
 86 87  2  0
 87 88  1  0
 88 89  2  0
 89 90  1  0
 90 91  2  0
 91  2  1  0
 91 57  1  0
M  END
>  <Title>  (238) 
idAAHFgen14

$$$$

     RDKit          2D

 38 43  0  0  0  0  0  0  0  0999 V2000
   -3.8536   -0.8075    0.0000 C   0  0  0  0  0  0  0  0  0  0  0  0
   -3.8536   -2.3075    0.0000 C   0  0  0  0  0  0  0  0  0  0  0  0
   -5.0672   -3.1891    0.0000 C   0  0  0  0  0  0  0  0  0  0  0  0
   -4.6036   -4.6157    0.0000 C   0  0  0  0  0  0  0  0  0  0  0  0
   -3.1036   -4.6157    0.0000 N   0  0  0  0  0  0  0  0  0  0  0  0
   -2.6401   -3.1891    0.0000 N   0  0  0  0  0  0  0  0  0  0  0  0
   -1.2135   -2.7256    0.0000 C   0  0  0  0  0  0  0  0  0  0  0  0
   -0.0000   -3.6073    0.0000 C   0  0  0  0  0  0  0  0  0  0  0  0
    1.2135   -2.7256    0.0000 C   0  0  0  0  0  0  0  0  0  0  0  0
    2.6401   -3.1891    0.0000 C   0  0  0  0  0  0  0  0  0  0  0  0
    3.7548   -2.1855    0.0000 O   0  0  0  0  0  0  0  0  0  0  0  0
    2.9520   -4.6564    0.0000 N   0  0  0  0  0  0  0  0  0  0  0  0
    4.3786   -5.1199    0.0000 C   0  0  0  0  0  0  0  0  0  0  0  0
    5.5921   -4.2382    0.0000 N   0  0  0  0  0  0  0  0  0  0  0  0
    6.8056   -5.1199    0.0000 N   0  0  0  0  0  0  0  0  0  0  0  0
    6.3421   -6.5465    0.0000 N   0  0  0  0  0  0  0  0  0  0  0  0
    4.8421   -6.5465    0.0000 N   0  0  0  0  0  0  0  0  0  0  0  0
    3.9604   -7.7600    0.0000 N   0  0  0  0  0  0  0  0  0  0  0  0
    4.4239   -9.1866    0.0000 C   0  0  0  0  0  0  0  0  0  0  0  0
    3.2104  -10.0683    0.0000 C   0  0  0  0  0  0  0  0  0  0  0  0
    1.9969   -9.1866    0.0000 N   0  0  0  0  0  0  0  0  0  0  0  0
    0.5703   -9.6501    0.0000 C   0  0  0  0  0  0  0  0  0  0  0  0
    0.2584  -11.1173    0.0000 O   0  0  0  0  0  0  0  0  0  0  0  0
   -0.5444   -8.6464    0.0000 N   0  0  0  0  0  0  0  0  0  0  0  0
   -1.9710   -9.1099    0.0000 C   0  0  0  0  0  0  0  0  0  0  0  0
   -3.0857   -8.1062    0.0000 N   0  0  0  0  0  0  0  0  0  0  0  0
   -4.5123   -8.5698    0.0000 N   0  0  0  0  0  0  0  0  0  0  0  0
   -4.8242  -10.0370    0.0000 N   0  0  0  0  0  0  0  0  0  0  0  0
   -3.7095  -11.0407    0.0000 N   0  0  0  0  0  0  0  0  0  0  0  0
   -2.2829  -10.5772    0.0000 N   0  0  0  0  0  0  0  0  0  0  0  0
    2.4604   -7.7600    0.0000 C   0  0  0  0  0  0  0  0  0  0  0  0
    1.5787   -6.5465    0.0000 O   0  0  0  0  0  0  0  0  0  0  0  0
    0.7500   -1.2990    0.0000 C   0  0  0  0  0  0  0  0  0  0  0  0
    1.5000    0.0000    0.0000 C   0  0  0  0  0  0  0  0  0  0  0  0
    0.7500    1.2990    0.0000 C   0  0  0  0  0  0  0  0  0  0  0  0
   -0.7500    1.2990    0.0000 C   0  0  0  0  0  0  0  0  0  0  0  0
   -1.5000    0.0000    0.0000 C   0  0  0  0  0  0  0  0  0  0  0  0
   -0.7500   -1.2990    0.0000 C   0  0  0  0  0  0  0  0  0  0  0  0
  1  2  1  0
  2  3  2  0
  3  4  1  0
  4  5  2  0
  5  6  1  0
  6  7  1  0
  7  8  1  0
  8  9  2  0
  9 10  1  0
 10 11  2  0
 10 12  1  0
 12 13  1  0
 13 14  2  0
 14 15  1  0
 15 16  2  0
 16 17  1  0
 17 18  1  0
 18 19  1  0
 19 20  1  0
 20 21  1  0
 21 22  1  0
 22 23  2  0
 22 24  1  0
 24 25  1  0
 25 26  2  0
 26 27  1  0
 27 28  2  0
 28 29  1  0
 29 30  2  0
 21 31  1  0
 31 32  2  0
  9 33  1  0
 33 34  2  0
 34 35  1  0
 35 36  2  0
 36 37  1  0
 37 38  2  0
  6  2  1  0
 38  7  1  0
 17 13  1  0
 31 18  1  0
 38 33  1  0
 30 25  1  0
M  END
>  <Title>  (239) 
idAAHGgen14

$$$$

     RDKit          2D

  7  7  0  0  0  0  0  0  0  0999 V2000
    3.0000    0.0000    0.0000 C   0  0  0  0  0  0  0  0  0  0  0  0
    1.5000    0.0000    0.0000 C   0  0  0  0  0  0  0  0  0  0  0  0
    0.7500   -1.2990    0.0000 C   0  0  0  0  0  0  0  0  0  0  0  0
   -0.7500   -1.2990    0.0000 C   0  0  0  0  0  0  0  0  0  0  0  0
   -1.5000    0.0000    0.0000 C   0  0  0  0  0  0  0  0  0  0  0  0
   -0.7500    1.2990    0.0000 C   0  0  0  0  0  0  0  0  0  0  0  0
    0.7500    1.2990    0.0000 C   0  0  0  0  0  0  0  0  0  0  0  0
  1  2  1  0
  2  3  2  0
  3  4  1  0
  4  5  1  0
  5  6  2  0
  6  7  1  0
  7  2  1  0
M  END
>  <Title>  (240) 
idAAHHgen14

$$$$

     RDKit          2D

  5  4  0  0  0  0  0  0  0  0999 V2000
    0.0000    0.0000    0.0000 C   0  0  0  0  0  0  0  0  0  0  0  0
    1.2990    0.7500    0.0000 C   0  0  0  0  0  0  0  0  0  0  0  0
    2.5981   -0.0000    0.0000 C   0  0  0  0  0  0  0  0  0  0  0  0
    3.8971    0.7500    0.0000 C   0  0  0  0  0  0  0  0  0  0  0  0
    5.1962   -0.0000    0.0000 C   0  0  0  0  0  0  0  0  0  0  0  0
  1  2  1  0
  2  3  2  3
  3  4  1  0
  4  5  1  0
M  END
>  <Title>  (241) 
idAAHIgen14

$$$$

     RDKit          2D

 10  9  0  0  0  0  0  0  0  0999 V2000
    0.0000    0.0000    0.0000 C   0  0  0  0  0  0  0  0  0  0  0  0
    1.2990    0.7500    0.0000 C   0  0  0  0  0  0  0  0  0  0  0  0
    2.5981    1.5000    0.0000 C   0  0  0  0  0  0  0  0  0  0  0  0
    3.8971    2.2500    0.0000 C   0  0  0  0  0  0  0  0  0  0  0  0
    5.1962    3.0000    0.0000 C   0  0  0  0  0  0  0  0  0  0  0  0
    6.4952    3.7500    0.0000 C   0  0  0  0  0  0  0  0  0  0  0  0
    7.7942    4.5000    0.0000 C   0  0  0  0  0  0  0  0  0  0  0  0
    9.0933    5.2500    0.0000 C   0  0  0  0  0  0  0  0  0  0  0  0
   10.3923    4.5000    0.0000 C   0  0  0  0  0  0  0  0  0  0  0  0
    9.0933    6.7500    0.0000 C   0  0  0  0  0  0  0  0  0  0  0  0
  1  2  1  0
  2  3  3  0
  3  4  1  0
  4  5  3  0
  5  6  1  0
  6  7  3  0
  7  8  1  0
  8  9  1  0
  8 10  1  0
M  END
>  <Title>  (242) 
idAAHJgen14

$$$$

     RDKit          2D

  8  8  0  0  0  0  0  0  0  0999 V2000
    3.2286   -0.0000    0.0000 C   0  0  0  0  0  0  0  0  0  0  0  0
    1.7286    0.0000    0.0000 C   0  0  0  0  0  0  0  0  0  0  0  0
    1.0777    1.3515    0.0000 C   0  0  0  0  0  0  0  0  0  0  0  0
   -0.3846    1.6852    0.0000 C   0  0  0  0  0  0  0  0  0  0  0  0
   -1.5574    0.7500    0.0000 C   0  0  0  0  0  0  0  0  0  0  0  0
   -1.5574   -0.7500    0.0000 C   0  0  0  0  0  0  0  0  0  0  0  0
   -0.3846   -1.6852    0.0000 C   0  0  0  0  0  0  0  0  0  0  0  0
    1.0777   -1.3515    0.0000 C   0  0  0  0  0  0  0  0  0  0  0  0
  1  2  1  0
  2  3  1  0
  3  4  2  0
  4  5  1  0
  5  6  1  0
  6  7  2  0
  7  8  1  0
  8  2  1  0
M  END
>  <Title>  (243) 
idAAHKgen14

$$$$

     RDKit          2D

 42 46  0  0  0  0  0  0  0  0999 V2000
   -5.2500   -9.0933    0.0000 C   0  0  0  0  0  0  0  0  0  0  0  0
   -6.0000   -7.7942    0.0000 C   0  0  0  0  0  0  0  0  0  0  0  0
   -5.2500   -6.4952    0.0000 C   0  0  0  0  0  0  0  0  0  0  0  0
   -6.0000   -5.1962    0.0000 C   0  0  0  0  0  0  0  0  0  0  0  0
   -7.5000   -5.1962    0.0000 C   0  0  0  0  0  0  0  0  0  0  0  0
   -5.2500   -3.8971    0.0000 N   0  0  0  0  0  0  0  0  0  0  0  0
   -3.7500   -3.8971    0.0000 C   0  0  0  0  0  0  0  0  0  0  0  0
   -3.0000   -5.1962    0.0000 O   0  0  0  0  0  0  0  0  0  0  0  0
   -3.0000   -2.5981    0.0000 C   0  0  0  0  0  0  0  0  0  0  0  0
   -1.5000   -2.5981    0.0000 C   0  0  0  0  0  0  0  0  0  0  0  0
   -0.7500   -3.8971    0.0000 C   0  0  0  0  0  0  0  0  0  0  0  0
    0.7500   -3.8971    0.0000 S   0  0  0  0  0  4  0  0  0  0  0  0
    1.5000   -2.5981    0.0000 C   0  0  0  0  0  0  0  0  0  0  0  0
    3.0000   -2.5981    0.0000 C   0  0  0  0  0  0  0  0  0  0  0  0
    3.7500   -1.2990    0.0000 O   0  0  0  0  0  0  0  0  0  0  0  0
    3.7500   -3.8971    0.0000 N   0  0  0  0  0  0  0  0  0  0  0  0
    5.2500   -3.8971    0.0000 C   0  0  0  0  0  0  0  0  0  0  0  0
    6.1317   -2.6836    0.0000 N   0  0  0  0  0  0  0  0  0  0  0  0
    7.5583   -3.1471    0.0000 N   0  0  0  0  0  0  0  0  0  0  0  0
    7.5583   -4.6471    0.0000 N   0  0  0  0  0  0  0  0  0  0  0  0
    6.1317   -5.1106    0.0000 N   0  0  0  0  0  0  0  0  0  0  0  0
    5.6682   -6.5372    0.0000 N   0  0  0  0  0  0  0  0  0  0  0  0
    6.5498   -7.7508    0.0000 C   0  0  0  0  0  0  0  0  0  0  0  0
    5.6682   -8.9643    0.0000 C   0  0  0  0  0  0  0  0  0  0  0  0
    4.2416   -8.5008    0.0000 N   0  0  0  0  0  0  0  0  0  0  0  0
    3.0280   -9.3824    0.0000 C   0  0  0  0  0  0  0  0  0  0  0  0
    3.1848  -10.8742    0.0000 O   0  0  0  0  0  0  0  0  0  0  0  0
    1.6577   -8.7723    0.0000 N   0  0  0  0  0  0  0  0  0  0  0  0
    0.4442   -9.6540    0.0000 C   0  0  0  0  0  0  0  0  0  0  0  0
   -0.9261   -9.0439    0.0000 N   0  0  0  0  0  0  0  0  0  0  0  0
   -2.1396   -9.9256    0.0000 N   0  0  0  0  0  0  0  0  0  0  0  0
   -1.9829  -11.4174    0.0000 N   0  0  0  0  0  0  0  0  0  0  0  0
   -0.6125  -12.0275    0.0000 N   0  0  0  0  0  0  0  0  0  0  0  0
    0.6010  -11.1458    0.0000 N   0  0  0  0  0  0  0  0  0  0  0  0
    4.2416   -7.0008    0.0000 C   0  0  0  0  0  0  0  0  0  0  0  0
    3.0280   -6.1191    0.0000 O   0  0  0  0  0  0  0  0  0  0  0  0
    0.7500   -1.2990    0.0000 C   0  0  0  0  0  0  0  0  0  0  0  0
    1.5000    0.0000    0.0000 C   0  0  0  0  0  0  0  0  0  0  0  0
    0.7500    1.2990    0.0000 C   0  0  0  0  0  0  0  0  0  0  0  0
   -0.7500    1.2990    0.0000 C   0  0  0  0  0  0  0  0  0  0  0  0
   -1.5000    0.0000    0.0000 C   0  0  0  0  0  0  0  0  0  0  0  0
   -0.7500   -1.2990    0.0000 C   0  0  0  0  0  0  0  0  0  0  0  0
  1  2  1  0
  2  3  1  0
  3  4  1  0
  4  5  1  0
  4  6  1  0
  6  7  1  0
  7  8  2  0
  7  9  1  0
  9 10  1  0
 10 11  2  0
 11 12  1  0
 12 13  2  0
 13 14  1  0
 14 15  2  0
 14 16  1  0
 16 17  1  0
 17 18  2  0
 18 19  1  0
 19 20  2  0
 20 21  1  0
 21 22  1  0
 22 23  1  0
 23 24  1  0
 24 25  1  0
 25 26  1  0
 26 27  2  0
 26 28  1  0
 28 29  1  0
 29 30  2  0
 30 31  1  0
 31 32  2  0
 32 33  1  0
 33 34  2  0
 25 35  1  0
 35 36  2  0
 13 37  1  0
 37 38  2  0
 38 39  1  0
 39 40  2  0
 40 41  1  0
 41 42  2  0
 42 10  1  0
 21 17  1  0
 35 22  1  0
 42 37  1  0
 34 29  1  0
M  END
>  <Title>  (244) 
idAAHLgen14

$$$$

     RDKit          2D

  7  7  0  0  0  0  0  0  0  0999 V2000
    3.0000    0.0000    0.0000 C   0  0  0  0  0  0  0  0  0  0  0  0
    1.5000    0.0000    0.0000 C   0  0  0  0  0  0  0  0  0  0  0  0
    0.7500   -1.2990    0.0000 C   0  0  0  0  0  0  0  0  0  0  0  0
   -0.7500   -1.2990    0.0000 C   0  0  0  0  0  0  0  0  0  0  0  0
   -1.5000    0.0000    0.0000 C   0  0  0  0  0  0  0  0  0  0  0  0
   -0.7500    1.2990    0.0000 C   0  0  0  0  0  0  0  0  0  0  0  0
    0.7500    1.2990    0.0000 C   0  0  0  0  0  0  0  0  0  0  0  0
  1  2  1  0
  2  3  2  0
  3  4  1  0
  4  5  1  0
  5  6  1  0
  6  7  2  0
  7  2  1  0
M  END
>  <Title>  (245) 
idAAHMgen14

$$$$

     RDKit          2D

 16 16  0  0  0  0  0  0  0  0999 V2000
    9.7500   -3.8971    0.0000 C   0  0  0  0  0  0  0  0  0  0  0  0
    8.2500   -3.8971    0.0000 C   0  0  0  0  0  0  0  0  0  0  0  0
    7.5000   -2.5981    0.0000 C   0  0  0  0  0  0  0  0  0  0  0  0
    6.0000   -2.5981    0.0000 C   0  0  0  0  0  0  0  0  0  0  0  0
    5.2500   -1.2990    0.0000 C   0  0  0  0  0  0  0  0  0  0  0  0
    3.7500   -1.2990    0.0000 C   0  0  0  0  0  0  0  0  0  0  0  0
    3.0000   -2.5981    0.0000 O   0  0  0  0  0  0  0  0  0  0  0  0
    3.0000    0.0000    0.0000 N   0  0  0  0  0  0  0  0  0  0  0  0
    1.5000    0.0000    0.0000 C   0  0  0  0  0  0  0  0  0  0  0  0
    0.7500   -1.2990    0.0000 N   0  0  0  0  0  0  0  0  0  0  0  0
   -0.7500   -1.2990    0.0000 O   0  0  0  0  0  0  0  0  0  0  0  0
   -1.5000    0.0000    0.0000 C   0  0  0  0  0  0  0  0  0  0  0  0
   -0.7500    1.2990    0.0000 C   0  0  0  0  0  0  0  0  0  0  0  0
    0.7500    1.2990    0.0000 C   0  0  0  0  0  0  0  0  0  0  0  0
    5.2500   -3.8971    0.0000 N   0  0  0  0  0  0  0  0  0  0  0  0
    6.0000   -5.1962    0.0000 C   0  0  0  0  0  0  0  0  0  0  0  0
  1  2  1  0
  2  3  1  0
  3  4  1  0
  4  5  1  0
  5  6  1  0
  6  7  2  0
  6  8  1  0
  8  9  1  0
  9 10  2  0
 10 11  1  0
 11 12  1  0
 12 13  1  0
 13 14  2  0
  4 15  1  0
 15 16  1  0
 14  9  1  0
M  END
>  <Title>  (246) 
idAAHNgen14

$$$$

     RDKit          2D

 40 45  0  0  0  0  0  0  0  0999 V2000
   -1.3240   -6.3062    0.0000 C   0  0  0  0  0  0  0  0  0  0  0  0
   -0.7500   -4.9204    0.0000 C   0  0  0  0  0  0  0  0  0  0  0  0
    0.7500   -4.9204    0.0000 C   0  0  0  0  0  0  0  0  0  0  0  0
    1.8107   -3.8597    0.0000 C   0  0  0  0  0  0  0  0  0  0  0  0
    1.8107   -2.3597    0.0000 C   0  0  0  0  0  0  0  0  0  0  0  0
    3.1965   -1.7857    0.0000 C   0  0  0  0  0  0  0  0  0  0  0  0
    3.3923   -0.2985    0.0000 O   0  0  0  0  0  0  0  0  0  0  0  0
    4.3865   -2.6988    0.0000 N   0  0  0  0  0  0  0  0  0  0  0  0
    5.7723   -2.1248    0.0000 C   0  0  0  0  0  0  0  0  0  0  0  0
    6.1225   -0.6662    0.0000 N   0  0  0  0  0  0  0  0  0  0  0  0
    7.6179   -0.5485    0.0000 N   0  0  0  0  0  0  0  0  0  0  0  0
    8.1919   -1.9344    0.0000 N   0  0  0  0  0  0  0  0  0  0  0  0
    7.0513   -2.9085    0.0000 N   0  0  0  0  0  0  0  0  0  0  0  0
    7.1690   -4.4039    0.0000 N   0  0  0  0  0  0  0  0  0  0  0  0
    8.4479   -5.1877    0.0000 C   0  0  0  0  0  0  0  0  0  0  0  0
    8.0978   -6.6462    0.0000 C   0  0  0  0  0  0  0  0  0  0  0  0
    6.6024   -6.7639    0.0000 N   0  0  0  0  0  0  0  0  0  0  0  0
    5.8186   -8.0429    0.0000 C   0  0  0  0  0  0  0  0  0  0  0  0
    6.5344   -9.3611    0.0000 O   0  0  0  0  0  0  0  0  0  0  0  0
    4.3192   -8.0036    0.0000 N   0  0  0  0  0  0  0  0  0  0  0  0
    3.5354   -9.2826    0.0000 C   0  0  0  0  0  0  0  0  0  0  0  0
    2.0359   -9.2433    0.0000 N   0  0  0  0  0  0  0  0  0  0  0  0
    1.2522  -10.5223    0.0000 N   0  0  0  0  0  0  0  0  0  0  0  0
    1.9679  -11.8405    0.0000 N   0  0  0  0  0  0  0  0  0  0  0  0
    3.4674  -11.8797    0.0000 N   0  0  0  0  0  0  0  0  0  0  0  0
    4.2512  -10.6008    0.0000 N   0  0  0  0  0  0  0  0  0  0  0  0
    6.0284   -5.3781    0.0000 C   0  0  0  0  0  0  0  0  0  0  0  0
    4.5698   -5.0279    0.0000 O   0  0  0  0  0  0  0  0  0  0  0  0
    0.7500   -1.2990    0.0000 C   0  0  0  0  0  0  0  0  0  0  0  0
    1.5000    0.0000    0.0000 C   0  0  0  0  0  0  0  0  0  0  0  0
    0.7500    1.2990    0.0000 C   0  0  0  0  0  0  0  0  0  0  0  0
   -0.7500    1.2990    0.0000 C   0  0  0  0  0  0  0  0  0  0  0  0
   -1.5000    0.0000    0.0000 C   0  0  0  0  0  0  0  0  0  0  0  0
   -0.7500   -1.2990    0.0000 C   0  0  0  0  0  0  0  0  0  0  0  0
   -1.8107   -2.3597    0.0000 C   0  0  0  0  0  0  0  0  0  0  0  0
   -3.1097   -1.6097    0.0000 C   0  0  0  0  0  0  0  0  0  0  0  0
   -4.4087   -2.3597    0.0000 C   0  0  0  0  0  0  0  0  0  0  0  0
   -4.4087   -3.8597    0.0000 C   0  0  0  0  0  0  0  0  0  0  0  0
   -3.1097   -4.6097    0.0000 C   0  0  0  0  0  0  0  0  0  0  0  0
   -1.8107   -3.8597    0.0000 C   0  0  0  0  0  0  0  0  0  0  0  0
  1  2  1  0
  2  3  1  0
  3  4  2  0
  4  5  1  0
  5  6  1  0
  6  7  2  0
  6  8  1  0
  8  9  1  0
  9 10  2  0
 10 11  1  0
 11 12  2  0
 12 13  1  0
 13 14  1  0
 14 15  1  0
 15 16  1  0
 16 17  1  0
 17 18  1  0
 18 19  2  0
 18 20  1  0
 20 21  1  0
 21 22  2  0
 22 23  1  0
 23 24  2  0
 24 25  1  0
 25 26  2  0
 17 27  1  0
 27 28  2  0
  5 29  1  0
 29 30  2  0
 30 31  1  0
 31 32  2  0
 32 33  1  0
 33 34  2  0
 34 35  1  0
 35 36  2  0
 36 37  1  0
 37 38  2  0
 38 39  1  0
 39 40  2  0
 40  2  1  0
 13  9  1  0
 27 14  1  0
 34 29  1  0
 40 35  1  0
 26 21  1  0
M  END
>  <Title>  (247) 
idAAHOgen14

$$$$

     RDKit          2D

 35 39  0  0  0  0  0  0  0  0999 V2000
   -3.7500   -3.8971    0.0000 C   0  0  0  0  0  0  0  0  0  0  0  0
   -3.0000   -2.5981    0.0000 N   0  0  0  0  0  0  0  0  0  0  0  0
   -1.5000   -2.5981    0.0000 C   0  0  0  0  0  0  0  0  0  0  0  0
   -0.7500   -3.8971    0.0000 C   0  0  0  0  0  0  0  0  0  0  0  0
    0.7500   -3.8971    0.0000 C   0  0  0  0  0  0  0  0  0  0  0  0
    1.5000   -2.5981    0.0000 C   0  0  0  0  0  0  0  0  0  0  0  0
    3.0000   -2.5981    0.0000 C   0  0  0  0  0  0  0  0  0  0  0  0
    3.7500   -1.2990    0.0000 O   0  0  0  0  0  0  0  0  0  0  0  0
    3.7500   -3.8971    0.0000 N   0  0  0  0  0  0  0  0  0  0  0  0
    5.2500   -3.8971    0.0000 C   0  0  0  0  0  0  0  0  0  0  0  0
    6.1317   -2.6836    0.0000 N   0  0  0  0  0  0  0  0  0  0  0  0
    7.5583   -3.1471    0.0000 N   0  0  0  0  0  0  0  0  0  0  0  0
    7.5583   -4.6471    0.0000 N   0  0  0  0  0  0  0  0  0  0  0  0
    6.1317   -5.1106    0.0000 N   0  0  0  0  0  0  0  0  0  0  0  0
    5.6682   -6.5372    0.0000 N   0  0  0  0  0  0  0  0  0  0  0  0
    6.5498   -7.7508    0.0000 C   0  0  0  0  0  0  0  0  0  0  0  0
    5.6682   -8.9643    0.0000 C   0  0  0  0  0  0  0  0  0  0  0  0
    4.2416   -8.5008    0.0000 N   0  0  0  0  0  0  0  0  0  0  0  0
    3.0280   -9.3824    0.0000 C   0  0  0  0  0  0  0  0  0  0  0  0
    3.1848  -10.8742    0.0000 O   0  0  0  0  0  0  0  0  0  0  0  0
    1.6577   -8.7723    0.0000 N   0  0  0  0  0  0  0  0  0  0  0  0
    0.4442   -9.6540    0.0000 C   0  0  0  0  0  0  0  0  0  0  0  0
   -0.9261   -9.0439    0.0000 N   0  0  0  0  0  0  0  0  0  0  0  0
   -2.1396   -9.9256    0.0000 N   0  0  0  0  0  0  0  0  0  0  0  0
   -1.9829  -11.4174    0.0000 N   0  0  0  0  0  0  0  0  0  0  0  0
   -0.6125  -12.0275    0.0000 N   0  0  0  0  0  0  0  0  0  0  0  0
    0.6010  -11.1458    0.0000 N   0  0  0  0  0  0  0  0  0  0  0  0
    4.2416   -7.0008    0.0000 C   0  0  0  0  0  0  0  0  0  0  0  0
    3.0280   -6.1191    0.0000 O   0  0  0  0  0  0  0  0  0  0  0  0
    0.7500   -1.2990    0.0000 C   0  0  0  0  0  0  0  0  0  0  0  0
    1.5000    0.0000    0.0000 C   0  0  0  0  0  0  0  0  0  0  0  0
    0.7500    1.2990    0.0000 C   0  0  0  0  0  0  0  0  0  0  0  0
   -0.7500    1.2990    0.0000 C   0  0  0  0  0  0  0  0  0  0  0  0
   -1.5000    0.0000    0.0000 C   0  0  0  0  0  0  0  0  0  0  0  0
   -0.7500   -1.2990    0.0000 C   0  0  0  0  0  0  0  0  0  0  0  0
  1  2  1  0
  2  3  2  3
  3  4  1  0
  4  5  2  0
  5  6  1  0
  6  7  1  0
  7  8  2  0
  7  9  1  0
  9 10  1  0
 10 11  2  0
 11 12  1  0
 12 13  2  0
 13 14  1  0
 14 15  1  0
 15 16  1  0
 16 17  1  0
 17 18  1  0
 18 19  1  0
 19 20  2  0
 19 21  1  0
 21 22  1  0
 22 23  2  0
 23 24  1  0
 24 25  2  0
 25 26  1  0
 26 27  2  0
 18 28  1  0
 28 29  2  0
  6 30  1  0
 30 31  2  0
 31 32  1  0
 32 33  2  0
 33 34  1  0
 34 35  2  0
 35  3  1  0
 14 10  1  0
 28 15  1  0
 35 30  1  0
 27 22  1  0
M  END
>  <Title>  (248) 
idAAHPgen14

$$$$

     RDKit          2D

  5  4  0  0  0  0  0  0  0  0999 V2000
   -0.0000   -1.5000    0.0000 N   0  0  0  0  0  0  0  0  0  0  0  0
    0.0000    0.0000    0.0000 C   0  0  0  0  0  0  0  0  0  0  0  0
    0.0000    1.5000    0.0000 C   0  0  0  0  0  0  0  0  0  0  0  0
    0.0000    3.0000    0.0000 C   0  0  0  0  0  0  0  0  0  0  0  0
    0.0000    4.5000    0.0000 O   0  0  0  0  0  0  0  0  0  0  0  0
  1  2  3  0
  2  3  1  0
  3  4  3  0
  4  5  1  0
M  END
>  <Title>  (249) 
idAAHQgen14

$$$$

     RDKit          2D

 39 43  0  0  0  0  0  0  0  0999 V2000
   -8.2500   -6.4952    0.0000 C   0  0  0  0  0  0  0  0  0  0  0  0
   -7.5000   -5.1962    0.0000 C   0  0  0  0  0  0  0  0  0  0  0  0
   -6.0000   -5.1962    0.0000 C   0  0  0  0  0  0  0  0  0  0  0  0
   -5.2500   -3.8971    0.0000 N   0  0  0  0  0  0  0  0  0  0  0  0
   -3.7500   -3.8971    0.0000 C   0  0  0  0  0  0  0  0  0  0  0  0
   -3.0000   -2.5981    0.0000 C   0  0  0  0  0  0  0  0  0  0  0  0
   -1.5000   -2.5981    0.0000 C   0  0  0  0  0  0  0  0  0  0  0  0
   -0.7500   -3.8971    0.0000 C   0  0  0  0  0  0  0  0  0  0  0  0
    0.7500   -3.8971    0.0000 C   0  0  0  0  0  0  0  0  0  0  0  0
    1.5000   -2.5981    0.0000 C   0  0  0  0  0  0  0  0  0  0  0  0
    3.0000   -2.5981    0.0000 C   0  0  0  0  0  0  0  0  0  0  0  0
    3.7500   -1.2990    0.0000 O   0  0  0  0  0  0  0  0  0  0  0  0
    3.7500   -3.8971    0.0000 N   0  0  0  0  0  0  0  0  0  0  0  0
    5.2500   -3.8971    0.0000 C   0  0  0  0  0  0  0  0  0  0  0  0
    6.1317   -2.6836    0.0000 N   0  0  0  0  0  0  0  0  0  0  0  0
    7.5583   -3.1471    0.0000 N   0  0  0  0  0  0  0  0  0  0  0  0
    7.5583   -4.6471    0.0000 N   0  0  0  0  0  0  0  0  0  0  0  0
    6.1317   -5.1106    0.0000 N   0  0  0  0  0  0  0  0  0  0  0  0
    5.6682   -6.5372    0.0000 N   0  0  0  0  0  0  0  0  0  0  0  0
    6.5498   -7.7508    0.0000 C   0  0  0  0  0  0  0  0  0  0  0  0
    5.6682   -8.9643    0.0000 C   0  0  0  0  0  0  0  0  0  0  0  0
    4.2416   -8.5008    0.0000 N   0  0  0  0  0  0  0  0  0  0  0  0
    3.0280   -9.3824    0.0000 C   0  0  0  0  0  0  0  0  0  0  0  0
    3.1848  -10.8742    0.0000 O   0  0  0  0  0  0  0  0  0  0  0  0
    1.6577   -8.7723    0.0000 N   0  0  0  0  0  0  0  0  0  0  0  0
    0.4442   -9.6540    0.0000 C   0  0  0  0  0  0  0  0  0  0  0  0
   -0.9261   -9.0439    0.0000 N   0  0  0  0  0  0  0  0  0  0  0  0
   -2.1396   -9.9256    0.0000 N   0  0  0  0  0  0  0  0  0  0  0  0
   -1.9829  -11.4174    0.0000 N   0  0  0  0  0  0  0  0  0  0  0  0
   -0.6125  -12.0275    0.0000 N   0  0  0  0  0  0  0  0  0  0  0  0
    0.6010  -11.1458    0.0000 N   0  0  0  0  0  0  0  0  0  0  0  0
    4.2416   -7.0008    0.0000 C   0  0  0  0  0  0  0  0  0  0  0  0
    3.0280   -6.1191    0.0000 O   0  0  0  0  0  0  0  0  0  0  0  0
    0.7500   -1.2990    0.0000 C   0  0  0  0  0  0  0  0  0  0  0  0
    1.5000    0.0000    0.0000 C   0  0  0  0  0  0  0  0  0  0  0  0
    0.7500    1.2990    0.0000 C   0  0  0  0  0  0  0  0  0  0  0  0
   -0.7500    1.2990    0.0000 C   0  0  0  0  0  0  0  0  0  0  0  0
   -1.5000    0.0000    0.0000 C   0  0  0  0  0  0  0  0  0  0  0  0
   -0.7500   -1.2990    0.0000 C   0  0  0  0  0  0  0  0  0  0  0  0
  1  2  1  0
  2  3  2  3
  3  4  1  0
  4  5  1  0
  5  6  1  0
  6  7  1  0
  7  8  2  0
  8  9  1  0
  9 10  2  0
 10 11  1  0
 11 12  2  0
 11 13  1  0
 13 14  1  0
 14 15  2  0
 15 16  1  0
 16 17  2  0
 17 18  1  0
 18 19  1  0
 19 20  1  0
 20 21  1  0
 21 22  1  0
 22 23  1  0
 23 24  2  0
 23 25  1  0
 25 26  1  0
 26 27  2  0
 27 28  1  0
 28 29  2  0
 29 30  1  0
 30 31  2  0
 22 32  1  0
 32 33  2  0
 10 34  1  0
 34 35  2  0
 35 36  1  0
 36 37  2  0
 37 38  1  0
 38 39  2  0
 39  7  1  0
 18 14  1  0
 32 19  1  0
 39 34  1  0
 31 26  1  0
M  END
>  <Title>  (250) 
idAAHRgen14

$$$$

     RDKit          2D

  8  7  0  0  0  0  0  0  0  0999 V2000
    0.0000    0.0000    0.0000 C   0  0  0  0  0  0  0  0  0  0  0  0
    1.2990    0.7500    0.0000 C   0  0  0  0  0  0  0  0  0  0  0  0
    2.5981   -0.0000    0.0000 C   0  0  0  0  0  0  0  0  0  0  0  0
    3.8971    0.7500    0.0000 C   0  0  0  0  0  0  0  0  0  0  0  0
    5.1962   -0.0000    0.0000 C   0  0  0  0  0  0  0  0  0  0  0  0
    6.4952    0.7500    0.0000 C   0  0  0  0  0  0  0  0  0  0  0  0
    5.1962   -1.5000    0.0000 N   0  0  0  0  0  0  0  0  0  0  0  0
    6.4952   -2.2500    0.0000 C   0  0  0  0  0  0  0  0  0  0  0  0
  1  2  1  0
  2  3  1  0
  3  4  2  3
  4  5  1  0
  5  6  1  0
  5  7  1  0
  7  8  1  0
M  END
>  <Title>  (251) 
idAAHSgen14

$$$$

     RDKit          2D

 36 40  0  0  0  0  0  0  0  0999 V2000
   -3.1476   -2.1380    0.0000 C   0  0  0  0  0  0  0  0  0  0  0  0
   -1.6852   -2.4718    0.0000 C   0  0  0  0  0  0  0  0  0  0  0  0
   -1.3515   -3.9342    0.0000 C   0  0  0  0  0  0  0  0  0  0  0  0
   -0.0000   -4.5850    0.0000 C   0  0  0  0  0  0  0  0  0  0  0  0
    1.3515   -3.9342    0.0000 C   0  0  0  0  0  0  0  0  0  0  0  0
    1.6852   -2.4718    0.0000 C   0  0  0  0  0  0  0  0  0  0  0  0
    3.1476   -2.1380    0.0000 C   0  0  0  0  0  0  0  0  0  0  0  0
    3.5898   -0.7046    0.0000 O   0  0  0  0  0  0  0  0  0  0  0  0
    4.1679   -3.2376    0.0000 N   0  0  0  0  0  0  0  0  0  0  0  0
    5.6303   -2.9038    0.0000 C   0  0  0  0  0  0  0  0  0  0  0  0
    6.2198   -1.5245    0.0000 N   0  0  0  0  0  0  0  0  0  0  0  0
    7.7138   -1.6590    0.0000 N   0  0  0  0  0  0  0  0  0  0  0  0
    8.0476   -3.1214    0.0000 N   0  0  0  0  0  0  0  0  0  0  0  0
    6.7599   -3.8907    0.0000 N   0  0  0  0  0  0  0  0  0  0  0  0
    6.6254   -5.3847    0.0000 C   0  0  0  0  0  0  0  0  0  0  0  0
    7.7550   -6.3716    0.0000 C   0  0  0  0  0  0  0  0  0  0  0  0
    7.1655   -7.7509    0.0000 C   0  0  0  0  0  0  0  0  0  0  0  0
    5.6715   -7.6164    0.0000 C   0  0  0  0  0  0  0  0  0  0  0  0
    4.6846   -8.7460    0.0000 O   0  0  0  0  0  0  0  0  0  0  0  0
    3.2129   -8.4561    0.0000 C   0  0  0  0  0  0  0  0  0  0  0  0
    2.7281   -7.0366    0.0000 O   0  0  0  0  0  0  0  0  0  0  0  0
    2.2260   -9.5857    0.0000 N   0  0  0  0  0  0  0  0  0  0  0  0
    0.7543   -9.2959    0.0000 C   0  0  0  0  0  0  0  0  0  0  0  0
    0.2695   -7.8764    0.0000 N   0  0  0  0  0  0  0  0  0  0  0  0
   -1.2023   -7.5865    0.0000 N   0  0  0  0  0  0  0  0  0  0  0  0
   -2.1892   -8.7161    0.0000 N   0  0  0  0  0  0  0  0  0  0  0  0
   -1.7044  -10.1356    0.0000 N   0  0  0  0  0  0  0  0  0  0  0  0
   -0.2326  -10.4255    0.0000 N   0  0  0  0  0  0  0  0  0  0  0  0
    5.3378   -6.1540    0.0000 C   0  0  0  0  0  0  0  0  0  0  0  0
    3.9585   -5.5645    0.0000 O   0  0  0  0  0  0  0  0  0  0  0  0
    0.7500   -1.2990    0.0000 C   0  0  0  0  0  0  0  0  0  0  0  0
    1.5000    0.0000    0.0000 C   0  0  0  0  0  0  0  0  0  0  0  0
    0.7500    1.2990    0.0000 C   0  0  0  0  0  0  0  0  0  0  0  0
   -0.7500    1.2990    0.0000 C   0  0  0  0  0  0  0  0  0  0  0  0
   -1.5000    0.0000    0.0000 C   0  0  0  0  0  0  0  0  0  0  0  0
   -0.7500   -1.2990    0.0000 C   0  0  0  0  0  0  0  0  0  0  0  0
  1  2  1  0
  2  3  1  0
  3  4  2  0
  4  5  1  0
  5  6  2  0
  6  7  1  0
  7  8  2  0
  7  9  1  0
  9 10  1  0
 10 11  2  0
 11 12  1  0
 12 13  2  0
 13 14  1  0
 14 15  1  0
 15 16  2  0
 16 17  1  0
 17 18  2  0
 18 19  1  0
 19 20  1  0
 20 21  2  0
 20 22  1  0
 22 23  1  0
 23 24  2  0
 24 25  1  0
 25 26  2  0
 26 27  1  0
 27 28  2  0
 18 29  1  0
 29 30  2  0
  6 31  1  0
 31 32  2  0
 32 33  1  0
 33 34  2  0
 34 35  1  0
 35 36  2  0
 36  2  1  0
 14 10  1  0
 29 15  1  0
 36 31  1  0
 28 23  1  0
M  END
>  <Title>  (252) 
idAAHTgen14

$$$$

     RDKit          2D

 30 34  0  0  0  0  0  0  0  0999 V2000
    0.5923   -7.4733    0.0000 O   0  0  0  0  0  0  0  0  0  0  0  0
   -0.7780   -8.0834    0.0000 C   0  0  0  0  0  0  0  0  0  0  0  0
   -0.9348   -9.5752    0.0000 N   0  0  0  0  0  0  0  0  0  0  0  0
    0.2787  -10.4569    0.0000 C   0  0  0  0  0  0  0  0  0  0  0  0
    0.1219  -11.9486    0.0000 N   0  0  0  0  0  0  0  0  0  0  0  0
    1.3354  -12.8303    0.0000 N   0  0  0  0  0  0  0  0  0  0  0  0
    2.7057  -12.2202    0.0000 N   0  0  0  0  0  0  0  0  0  0  0  0
    2.8625  -10.7284    0.0000 N   0  0  0  0  0  0  0  0  0  0  0  0
    1.6490   -9.8467    0.0000 N   0  0  0  0  0  0  0  0  0  0  0  0
   -1.9916   -7.2017    0.0000 N   0  0  0  0  0  0  0  0  0  0  0  0
   -3.4182   -7.6652    0.0000 C   0  0  0  0  0  0  0  0  0  0  0  0
   -4.2998   -6.4517    0.0000 C   0  0  0  0  0  0  0  0  0  0  0  0
   -3.4182   -5.2382    0.0000 N   0  0  0  0  0  0  0  0  0  0  0  0
   -3.8817   -3.8116    0.0000 N   0  0  0  0  0  0  0  0  0  0  0  0
   -5.3083   -3.3481    0.0000 N   0  0  0  0  0  0  0  0  0  0  0  0
   -5.3083   -1.8481    0.0000 N   0  0  0  0  0  0  0  0  0  0  0  0
   -3.8817   -1.3846    0.0000 C   0  0  0  0  0  0  0  0  0  0  0  0
   -3.0000   -2.5981    0.0000 C   0  0  0  0  0  0  0  0  0  0  0  0
   -1.5000   -2.5981    0.0000 C   0  0  0  0  0  0  0  0  0  0  0  0
   -0.7500   -3.8971    0.0000 S   0  0  0  0  0  0  0  0  0  0  0  0
    0.7500   -3.8971    0.0000 C   0  0  0  0  0  0  0  0  0  0  0  0
    1.5000   -2.5981    0.0000 C   0  0  0  0  0  0  0  0  0  0  0  0
    0.7500   -1.2990    0.0000 C   0  0  0  0  0  0  0  0  0  0  0  0
    1.5000    0.0000    0.0000 C   0  0  0  0  0  0  0  0  0  0  0  0
    0.7500    1.2990    0.0000 C   0  0  0  0  0  0  0  0  0  0  0  0
   -0.7500    1.2990    0.0000 C   0  0  0  0  0  0  0  0  0  0  0  0
   -1.5000    0.0000    0.0000 C   0  0  0  0  0  0  0  0  0  0  0  0
   -0.7500   -1.2990    0.0000 C   0  0  0  0  0  0  0  0  0  0  0  0
   -1.9916   -5.7017    0.0000 C   0  0  0  0  0  0  0  0  0  0  0  0
   -0.7780   -4.8200    0.0000 O   0  0  0  0  0  0  0  0  0  0  0  0
  1  2  2  0
  2  3  1  0
  3  4  1  0
  4  5  2  0
  5  6  1  0
  6  7  2  0
  7  8  1  0
  8  9  2  0
  2 10  1  0
 10 11  1  0
 11 12  1  0
 12 13  1  0
 13 14  1  0
 14 15  1  0
 15 16  2  0
 16 17  1  0
 17 18  2  0
 18 19  1  0
 19 20  1  0
 20 21  1  0
 21 22  2  0
 22 23  1  0
 23 24  2  0
 24 25  1  0
 25 26  2  0
 26 27  1  0
 27 28  2  0
 13 29  1  0
 29 30  2  0
  9  4  1  0
 29 10  1  0
 18 14  1  0
 28 19  1  0
 28 23  1  0
M  END
>  <Title>  (253) 
idAAHUgen14

$$$$

     RDKit          2D

 11 11  0  0  0  0  0  0  0  0999 V2000
    6.0000   -2.5981    0.0000 C   0  0  0  0  0  0  0  0  0  0  0  0
    5.2500   -1.2990    0.0000 C   0  0  0  0  0  0  0  0  0  0  0  0
    6.0000    0.0000    0.0000 C   0  0  0  0  0  0  0  0  0  0  0  0
    3.7500   -1.2990    0.0000 C   0  0  0  0  0  0  0  0  0  0  0  0
    3.0000    0.0000    0.0000 N   0  0  0  0  0  0  0  0  0  0  0  0
    1.5000    0.0000    0.0000 C   0  0  0  0  0  0  0  0  0  0  0  0
    0.7500   -1.2990    0.0000 C   0  0  0  0  0  0  0  0  0  0  0  0
   -0.7500   -1.2990    0.0000 C   0  0  0  0  0  0  0  0  0  0  0  0
   -1.5000    0.0000    0.0000 C   0  0  0  0  0  0  0  0  0  0  0  0
   -0.7500    1.2990    0.0000 C   0  0  0  0  0  0  0  0  0  0  0  0
    0.7500    1.2990    0.0000 C   0  0  0  0  0  0  0  0  0  0  0  0
  1  2  1  0
  2  3  1  0
  2  4  1  0
  4  5  1  0
  5  6  1  0
  6  7  2  0
  7  8  1  0
  8  9  2  0
  9 10  1  0
 10 11  2  0
 11  6  1  0
M  END
>  <Title>  (254) 
idAAHVgen14

$$$$

     RDKit          2D

 34 38  0  0  0  0  0  0  0  0999 V2000
   -2.9520   -4.6564    0.0000 C   0  0  0  0  0  0  0  0  0  0  0  0
   -2.6401   -3.1891    0.0000 C   0  0  0  0  0  0  0  0  0  0  0  0
   -1.2135   -2.7256    0.0000 C   0  0  0  0  0  0  0  0  0  0  0  0
   -0.0000   -3.6073    0.0000 C   0  0  0  0  0  0  0  0  0  0  0  0
    1.2135   -2.7256    0.0000 C   0  0  0  0  0  0  0  0  0  0  0  0
    2.6401   -3.1891    0.0000 C   0  0  0  0  0  0  0  0  0  0  0  0
    3.7548   -2.1855    0.0000 O   0  0  0  0  0  0  0  0  0  0  0  0
    2.9520   -4.6564    0.0000 N   0  0  0  0  0  0  0  0  0  0  0  0
    4.3786   -5.1199    0.0000 C   0  0  0  0  0  0  0  0  0  0  0  0
    5.5921   -4.2382    0.0000 N   0  0  0  0  0  0  0  0  0  0  0  0
    6.8056   -5.1199    0.0000 N   0  0  0  0  0  0  0  0  0  0  0  0
    6.3421   -6.5465    0.0000 N   0  0  0  0  0  0  0  0  0  0  0  0
    4.8421   -6.5465    0.0000 N   0  0  0  0  0  0  0  0  0  0  0  0
    3.9604   -7.7600    0.0000 N   0  0  0  0  0  0  0  0  0  0  0  0
    4.4239   -9.1866    0.0000 C   0  0  0  0  0  0  0  0  0  0  0  0
    3.2104  -10.0683    0.0000 C   0  0  0  0  0  0  0  0  0  0  0  0
    1.9969   -9.1866    0.0000 N   0  0  0  0  0  0  0  0  0  0  0  0
    0.5703   -9.6501    0.0000 C   0  0  0  0  0  0  0  0  0  0  0  0
    0.2584  -11.1173    0.0000 O   0  0  0  0  0  0  0  0  0  0  0  0
   -0.5444   -8.6464    0.0000 N   0  0  0  0  0  0  0  0  0  0  0  0
   -1.9710   -9.1099    0.0000 C   0  0  0  0  0  0  0  0  0  0  0  0
   -3.0857   -8.1062    0.0000 N   0  0  0  0  0  0  0  0  0  0  0  0
   -4.5123   -8.5698    0.0000 N   0  0  0  0  0  0  0  0  0  0  0  0
   -4.8242  -10.0370    0.0000 N   0  0  0  0  0  0  0  0  0  0  0  0
   -3.7095  -11.0407    0.0000 N   0  0  0  0  0  0  0  0  0  0  0  0
   -2.2829  -10.5772    0.0000 N   0  0  0  0  0  0  0  0  0  0  0  0
    2.4604   -7.7600    0.0000 C   0  0  0  0  0  0  0  0  0  0  0  0
    1.5787   -6.5465    0.0000 O   0  0  0  0  0  0  0  0  0  0  0  0
    0.7500   -1.2990    0.0000 C   0  0  0  0  0  0  0  0  0  0  0  0
    1.5000    0.0000    0.0000 C   0  0  0  0  0  0  0  0  0  0  0  0
    0.7500    1.2990    0.0000 C   0  0  0  0  0  0  0  0  0  0  0  0
   -0.7500    1.2990    0.0000 C   0  0  0  0  0  0  0  0  0  0  0  0
   -1.5000    0.0000    0.0000 C   0  0  0  0  0  0  0  0  0  0  0  0
   -0.7500   -1.2990    0.0000 C   0  0  0  0  0  0  0  0  0  0  0  0
  1  2  1  0
  2  3  1  0
  3  4  2  0
  4  5  1  0
  5  6  1  0
  6  7  2  0
  6  8  1  0
  8  9  1  0
  9 10  2  0
 10 11  1  0
 11 12  2  0
 12 13  1  0
 13 14  1  0
 14 15  1  0
 15 16  1  0
 16 17  1  0
 17 18  1  0
 18 19  2  0
 18 20  1  0
 20 21  1  0
 21 22  2  0
 22 23  1  0
 23 24  2  0
 24 25  1  0
 25 26  2  0
 17 27  1  0
 27 28  2  0
  5 29  1  0
 29 30  2  0
 30 31  1  0
 31 32  2  0
 32 33  1  0
 33 34  2  0
 34  3  1  0
 13  9  1  0
 27 14  1  0
 34 29  1  0
 26 21  1  0
M  END
>  <Title>  (255) 
idAAHWgen14

$$$$

     RDKit          2D

101102  0  0  0  0  0  0  0  0999 V2000
   10.6707   -4.4613    0.0000 C   0  0  0  0  0  0  0  0  0  0  0  0
   11.4678   -4.4670    0.0000 C   0  0  0  0  0  0  0  0  0  0  0  0
   11.5475   -5.9649    0.0000 C   0  0  0  0  0  0  0  0  0  0  0  0
   11.8072   -7.4423    0.0000 C   0  0  0  0  0  0  0  0  0  0  0  0
   12.2431   -8.8775    0.0000 C   0  0  0  0  0  0  0  0  0  0  0  0
   12.8487  -10.2498    0.0000 C   0  0  0  0  0  0  0  0  0  0  0  0
   13.6154  -11.5391    0.0000 C   0  0  0  0  0  0  0  0  0  0  0  0
   14.5319  -12.7265    0.0000 C   0  0  0  0  0  0  0  0  0  0  0  0
   15.5849  -13.7949    0.0000 C   0  0  0  0  0  0  0  0  0  0  0  0
   16.7589  -14.7285    0.0000 C   0  0  0  0  0  0  0  0  0  0  0  0
   18.0369  -15.5138    0.0000 C   0  0  0  0  0  0  0  0  0  0  0  0
   19.4003  -16.1393    0.0000 C   0  0  0  0  0  0  0  0  0  0  0  0
   20.8291  -16.5959    0.0000 C   0  0  0  0  0  0  0  0  0  0  0  0
   22.3025  -16.8770    0.0000 C   0  0  0  0  0  0  0  0  0  0  0  0
   23.7991  -16.9784    0.0000 C   0  0  0  0  0  0  0  0  0  0  0  0
   25.2969  -16.8987    0.0000 C   0  0  0  0  0  0  0  0  0  0  0  0
   26.7743  -16.6390    0.0000 C   0  0  0  0  0  0  0  0  0  0  0  0
   28.2096  -16.2032    0.0000 C   0  0  0  0  0  0  0  0  0  0  0  0
   29.5818  -15.5975    0.0000 C   0  0  0  0  0  0  0  0  0  0  0  0
   30.8711  -14.8308    0.0000 C   0  0  0  0  0  0  0  0  0  0  0  0
   32.0586  -13.9143    0.0000 C   0  0  0  0  0  0  0  0  0  0  0  0
   33.1269  -12.8614    0.0000 C   0  0  0  0  0  0  0  0  0  0  0  0
   34.0605  -11.6873    0.0000 C   0  0  0  0  0  0  0  0  0  0  0  0
   34.8458  -10.4093    0.0000 C   0  0  0  0  0  0  0  0  0  0  0  0
   35.4713   -9.0460    0.0000 C   0  0  0  0  0  0  0  0  0  0  0  0
   35.9279   -7.6171    0.0000 C   0  0  0  0  0  0  0  0  0  0  0  0
   36.2090   -6.1437    0.0000 C   0  0  0  0  0  0  0  0  0  0  0  0
   36.3104   -4.6471    0.0000 C   0  0  0  0  0  0  0  0  0  0  0  0
   36.2307   -3.1493    0.0000 C   0  0  0  0  0  0  0  0  0  0  0  0
   35.9710   -1.6719    0.0000 C   0  0  0  0  0  0  0  0  0  0  0  0
   35.5352   -0.2366    0.0000 C   0  0  0  0  0  0  0  0  0  0  0  0
   34.9295    1.1356    0.0000 C   0  0  0  0  0  0  0  0  0  0  0  0
   34.1628    2.4249    0.0000 C   0  0  0  0  0  0  0  0  0  0  0  0
   33.2463    3.6124    0.0000 C   0  0  0  0  0  0  0  0  0  0  0  0
   32.1934    4.6807    0.0000 C   0  0  0  0  0  0  0  0  0  0  0  0
   31.0193    5.6143    0.0000 C   0  0  0  0  0  0  0  0  0  0  0  0
   29.7413    6.3996    0.0000 C   0  0  0  0  0  0  0  0  0  0  0  0
   28.3780    7.0251    0.0000 C   0  0  0  0  0  0  0  0  0  0  0  0
   26.9492    7.4817    0.0000 C   0  0  0  0  0  0  0  0  0  0  0  0
   25.4757    7.7628    0.0000 C   0  0  0  0  0  0  0  0  0  0  0  0
   23.9792    7.8642    0.0000 C   0  0  0  0  0  0  0  0  0  0  0  0
   22.4813    7.7845    0.0000 C   0  0  0  0  0  0  0  0  0  0  0  0
   21.0039    7.5248    0.0000 C   0  0  0  0  0  0  0  0  0  0  0  0
   19.5687    7.0890    0.0000 C   0  0  0  0  0  0  0  0  0  0  0  0
   18.1964    6.4833    0.0000 C   0  0  0  0  0  0  0  0  0  0  0  0
   16.9071    5.7166    0.0000 C   0  0  0  0  0  0  0  0  0  0  0  0
   15.7197    4.8001    0.0000 C   0  0  0  0  0  0  0  0  0  0  0  0
   14.6513    3.7472    0.0000 C   0  0  0  0  0  0  0  0  0  0  0  0
   13.7177    2.5731    0.0000 C   0  0  0  0  0  0  0  0  0  0  0  0
   12.9324    1.2951    0.0000 C   0  0  0  0  0  0  0  0  0  0  0  0
   12.3069   -0.0682    0.0000 C   0  0  0  0  0  0  0  0  0  0  0  0
   11.8503   -1.4970    0.0000 C   0  0  0  0  0  0  0  0  0  0  0  0
   11.2445    0.0000    0.0000 C   0  0  0  0  0  0  0  0  0  0  0  0
   11.1558    1.4093    0.0000 C   0  0  0  0  0  0  0  0  0  0  0  0
   10.8912    2.7964    0.0000 C   0  0  0  0  0  0  0  0  0  0  0  0
   10.4549    4.1394    0.0000 C   0  0  0  0  0  0  0  0  0  0  0  0
    9.8536    5.4171    0.0000 C   0  0  0  0  0  0  0  0  0  0  0  0
    9.0970    6.6093    0.0000 C   0  0  0  0  0  0  0  0  0  0  0  0
    8.1969    7.6974    0.0000 C   0  0  0  0  0  0  0  0  0  0  0  0
    7.1675    8.6640    0.0000 C   0  0  0  0  0  0  0  0  0  0  0  0
    6.0251    9.4940    0.0000 C   0  0  0  0  0  0  0  0  0  0  0  0
    4.7877   10.1743    0.0000 C   0  0  0  0  0  0  0  0  0  0  0  0
    3.4747   10.6941    0.0000 C   0  0  0  0  0  0  0  0  0  0  0  0
    2.1070   11.0453    0.0000 C   0  0  0  0  0  0  0  0  0  0  0  0
    0.7060   11.2223    0.0000 C   0  0  0  0  0  0  0  0  0  0  0  0
   -0.7060   11.2223    0.0000 C   0  0  0  0  0  0  0  0  0  0  0  0
   -2.1070   11.0453    0.0000 C   0  0  0  0  0  0  0  0  0  0  0  0
   -3.4747   10.6941    0.0000 C   0  0  0  0  0  0  0  0  0  0  0  0
   -4.7877   10.1743    0.0000 C   0  0  0  0  0  0  0  0  0  0  0  0
   -6.0251    9.4940    0.0000 C   0  0  0  0  0  0  0  0  0  0  0  0
   -7.1675    8.6640    0.0000 C   0  0  0  0  0  0  0  0  0  0  0  0
   -8.1969    7.6974    0.0000 C   0  0  0  0  0  0  0  0  0  0  0  0
   -9.0970    6.6093    0.0000 C   0  0  0  0  0  0  0  0  0  0  0  0
   -9.8536    5.4171    0.0000 C   0  0  0  0  0  0  0  0  0  0  0  0
  -10.4549    4.1394    0.0000 C   0  0  0  0  0  0  0  0  0  0  0  0
  -10.8912    2.7964    0.0000 C   0  0  0  0  0  0  0  0  0  0  0  0
  -11.1558    1.4093    0.0000 C   0  0  0  0  0  0  0  0  0  0  0  0
  -11.2445    0.0000    0.0000 C   0  0  0  0  0  0  0  0  0  0  0  0
  -11.1558   -1.4093    0.0000 C   0  0  0  0  0  0  0  0  0  0  0  0
  -10.8912   -2.7964    0.0000 C   0  0  0  0  0  0  0  0  0  0  0  0
  -10.4549   -4.1394    0.0000 C   0  0  0  0  0  0  0  0  0  0  0  0
   -9.8536   -5.4171    0.0000 C   0  0  0  0  0  0  0  0  0  0  0  0
   -9.0970   -6.6093    0.0000 C   0  0  0  0  0  0  0  0  0  0  0  0
   -8.1969   -7.6974    0.0000 C   0  0  0  0  0  0  0  0  0  0  0  0
   -7.1675   -8.6640    0.0000 C   0  0  0  0  0  0  0  0  0  0  0  0
   -6.0251   -9.4940    0.0000 C   0  0  0  0  0  0  0  0  0  0  0  0
   -4.7877  -10.1743    0.0000 C   0  0  0  0  0  0  0  0  0  0  0  0
   -3.4747  -10.6941    0.0000 C   0  0  0  0  0  0  0  0  0  0  0  0
   -2.1070  -11.0453    0.0000 C   0  0  0  0  0  0  0  0  0  0  0  0
   -0.7060  -11.2223    0.0000 C   0  0  0  0  0  0  0  0  0  0  0  0
    0.7060  -11.2223    0.0000 C   0  0  0  0  0  0  0  0  0  0  0  0
    2.1070  -11.0453    0.0000 C   0  0  0  0  0  0  0  0  0  0  0  0
    3.4747  -10.6941    0.0000 C   0  0  0  0  0  0  0  0  0  0  0  0
    4.7877  -10.1743    0.0000 C   0  0  0  0  0  0  0  0  0  0  0  0
    6.0251   -9.4940    0.0000 C   0  0  0  0  0  0  0  0  0  0  0  0
    7.1675   -8.6640    0.0000 C   0  0  0  0  0  0  0  0  0  0  0  0
    8.1969   -7.6974    0.0000 C   0  0  0  0  0  0  0  0  0  0  0  0
    9.0970   -6.6093    0.0000 C   0  0  0  0  0  0  0  0  0  0  0  0
    9.8536   -5.4171    0.0000 C   0  0  0  0  0  0  0  0  0  0  0  0
   10.4549   -4.1394    0.0000 C   0  0  0  0  0  0  0  0  0  0  0  0
   11.5692   -2.9705    0.0000 C   0  0  0  0  0  0  0  0  0  0  0  0
  1  2  1  0
  2  3  1  0
  3  4  1  0
  4  5  1  0
  5  6  1  0
  6  7  1  0
  7  8  1  0
  8  9  1  0
  9 10  1  0
 10 11  1  0
 11 12  1  0
 12 13  1  0
 13 14  1  0
 14 15  1  0
 15 16  1  0
 16 17  1  0
 17 18  1  0
 18 19  1  0
 19 20  1  0
 20 21  1  0
 21 22  1  0
 22 23  1  0
 23 24  1  0
 24 25  1  0
 25 26  1  0
 26 27  1  0
 27 28  1  0
 28 29  1  0
 29 30  1  0
 30 31  1  0
 31 32  1  0
 32 33  1  0
 33 34  1  0
 34 35  1  0
 35 36  1  0
 36 37  1  0
 37 38  1  0
 38 39  1  0
 39 40  1  0
 40 41  1  0
 41 42  1  0
 42 43  1  0
 43 44  1  0
 44 45  1  0
 45 46  1  0
 46 47  1  0
 47 48  1  0
 48 49  1  0
 49 50  1  0
 50 51  1  0
 51 52  1  0
 52 53  1  0
 53 54  1  0
 54 55  1  0
 55 56  1  0
 56 57  2  0
 57 58  1  0
 58 59  2  0
 59 60  1  0
 60 61  2  0
 61 62  1  0
 62 63  2  0
 63 64  1  0
 64 65  2  0
 65 66  1  0
 66 67  2  0
 67 68  1  0
 68 69  2  0
 69 70  1  0
 70 71  2  0
 71 72  1  0
 72 73  2  0
 73 74  1  0
 74 75  2  0
 75 76  1  0
 76 77  2  0
 77 78  1  0
 78 79  2  0
 79 80  1  0
 80 81  2  0
 81 82  1  0
 82 83  2  0
 83 84  1  0
 84 85  2  0
 85 86  1  0
 86 87  2  0
 87 88  1  0
 88 89  2  0
 89 90  1  0
 90 91  2  0
 91 92  1  0
 92 93  2  0
 93 94  1  0
 94 95  2  0
 95 96  1  0
 96 97  2  0
 97 98  1  0
 98 99  2  0
 99100  1  0
100101  2  0
101  2  1  0
101 52  1  0
M  END
>  <Title>  (256) 
idAAHXgen14

$$$$

     RDKit          2D

  8  7  0  0  0  0  0  0  0  0999 V2000
    0.0000    0.0000    0.0000 C   0  0  0  0  0  0  0  0  0  0  0  0
   -0.0000   -1.5000    0.0000 C   0  0  0  0  0  0  0  0  0  0  0  0
   -0.0000   -3.0000    0.0000 C   0  0  0  0  0  0  0  0  0  0  0  0
    1.2990   -3.7500    0.0000 C   0  0  0  0  0  0  0  0  0  0  0  0
    1.2990   -5.2500    0.0000 C   0  0  0  0  0  0  0  0  0  0  0  0
    2.5981   -6.0000    0.0000 C   0  0  0  0  0  0  0  0  0  0  0  0
    2.5981   -7.5000    0.0000 C   0  0  0  0  0  0  0  0  0  0  0  0
    2.5981   -9.0000    0.0000 N   0  0  0  0  0  0  0  0  0  0  0  0
  1  2  3  0
  2  3  1  0
  3  4  1  0
  4  5  1  0
  5  6  1  0
  6  7  1  0
  7  8  3  0
M  END
>  <Title>  (257) 
idAAHYgen14

$$$$

     RDKit          2D

 38 42  0  0  0  0  0  0  0  0999 V2000
   -3.1771   -1.2990    0.0000 C   0  0  0  0  0  0  0  0  0  0  0  0
   -1.9635   -2.1807    0.0000 C   0  0  0  0  0  0  0  0  0  0  0  0
   -2.4271   -3.6073    0.0000 C   0  0  0  0  0  0  0  0  0  0  0  0
   -1.9635   -5.0339    0.0000 C   0  0  0  0  0  0  0  0  0  0  0  0
   -0.7500   -5.9156    0.0000 C   0  0  0  0  0  0  0  0  0  0  0  0
    0.7500   -5.9156    0.0000 C   0  0  0  0  0  0  0  0  0  0  0  0
    1.9635   -5.0339    0.0000 C   0  0  0  0  0  0  0  0  0  0  0  0
    2.4271   -3.6073    0.0000 C   0  0  0  0  0  0  0  0  0  0  0  0
    1.9635   -2.1807    0.0000 C   0  0  0  0  0  0  0  0  0  0  0  0
    3.1771   -1.2990    0.0000 C   0  0  0  0  0  0  0  0  0  0  0  0
    3.0203    0.1927    0.0000 O   0  0  0  0  0  0  0  0  0  0  0  0
    4.5474   -1.9091    0.0000 N   0  0  0  0  0  0  0  0  0  0  0  0
    5.7609   -1.0275    0.0000 C   0  0  0  0  0  0  0  0  0  0  0  0
    5.7609    0.4725    0.0000 N   0  0  0  0  0  0  0  0  0  0  0  0
    7.1875    0.9361    0.0000 N   0  0  0  0  0  0  0  0  0  0  0  0
    8.0692   -0.2775    0.0000 N   0  0  0  0  0  0  0  0  0  0  0  0
    7.1875   -1.4910    0.0000 N   0  0  0  0  0  0  0  0  0  0  0  0
    7.6510   -2.9176    0.0000 C   0  0  0  0  0  0  0  0  0  0  0  0
    9.0776   -3.3811    0.0000 C   0  0  0  0  0  0  0  0  0  0  0  0
    9.0776   -4.8811    0.0000 C   0  0  0  0  0  0  0  0  0  0  0  0
    7.6510   -5.3446    0.0000 C   0  0  0  0  0  0  0  0  0  0  0  0
    7.1875   -6.7712    0.0000 C   0  0  0  0  0  0  0  0  0  0  0  0
    8.1912   -7.8859    0.0000 O   0  0  0  0  0  0  0  0  0  0  0  0
    5.7203   -7.0831    0.0000 N   0  0  0  0  0  0  0  0  0  0  0  0
    5.2567   -8.5097    0.0000 C   0  0  0  0  0  0  0  0  0  0  0  0
    3.7895   -8.8215    0.0000 N   0  0  0  0  0  0  0  0  0  0  0  0
    3.3260  -10.2481    0.0000 N   0  0  0  0  0  0  0  0  0  0  0  0
    4.3297  -11.3628    0.0000 N   0  0  0  0  0  0  0  0  0  0  0  0
    5.7969  -11.0510    0.0000 N   0  0  0  0  0  0  0  0  0  0  0  0
    6.2604   -9.6244    0.0000 N   0  0  0  0  0  0  0  0  0  0  0  0
    6.7693   -4.1311    0.0000 C   0  0  0  0  0  0  0  0  0  0  0  0
    5.2693   -4.1311    0.0000 O   0  0  0  0  0  0  0  0  0  0  0  0
    0.7500   -1.2990    0.0000 C   0  0  0  0  0  0  0  0  0  0  0  0
    1.5000    0.0000    0.0000 C   0  0  0  0  0  0  0  0  0  0  0  0
    0.7500    1.2990    0.0000 C   0  0  0  0  0  0  0  0  0  0  0  0
   -0.7500    1.2990    0.0000 C   0  0  0  0  0  0  0  0  0  0  0  0
   -1.5000    0.0000    0.0000 C   0  0  0  0  0  0  0  0  0  0  0  0
   -0.7500   -1.2990    0.0000 C   0  0  0  0  0  0  0  0  0  0  0  0
  1  2  1  0
  2  3  1  0
  3  4  1  0
  4  5  1  0
  5  6  2  0
  6  7  1  0
  7  8  1  0
  8  9  1  0
  9 10  1  0
 10 11  2  0
 10 12  1  0
 12 13  1  0
 13 14  2  0
 14 15  1  0
 15 16  2  0
 16 17  1  0
 17 18  1  0
 18 19  2  0
 19 20  1  0
 20 21  2  0
 21 22  1  0
 22 23  2  0
 22 24  1  0
 24 25  1  0
 25 26  2  0
 26 27  1  0
 27 28  2  0
 28 29  1  0
 29 30  2  0
 21 31  1  0
 31 32  2  0
  9 33  1  0
 33 34  2  0
 34 35  1  0
 35 36  2  0
 36 37  1  0
 37 38  2  0
 38  2  1  0
 17 13  1  0
 31 18  1  0
 38 33  1  0
 30 25  1  0
M  END
>  <Title>  (258) 
idAAHZgen14

$$$$

     RDKit          2D

 11 10  0  0  0  0  0  0  0  0999 V2000
    0.0000    0.0000    0.0000 C   0  0  0  0  0  0  0  0  0  0  0  0
   -0.0000   -1.5000    0.0000 C   0  0  0  0  0  0  0  0  0  0  0  0
   -0.0000   -3.0000    0.0000 C   0  0  0  0  0  0  0  0  0  0  0  0
    1.2990   -3.7500    0.0000 C   0  0  0  0  0  0  0  0  0  0  0  0
    1.2990   -5.2500    0.0000 C   0  0  0  0  0  0  0  0  0  0  0  0
    2.5981   -6.0000    0.0000 C   0  0  0  0  0  0  0  0  0  0  0  0
    2.5981   -7.5000    0.0000 C   0  0  0  0  0  0  0  0  0  0  0  0
    3.8971   -8.2500    0.0000 C   0  0  0  0  0  0  0  0  0  0  0  0
    1.2990   -8.2500    0.0000 C   0  0  0  0  0  0  0  0  0  0  0  0
   -0.0000   -6.0000    0.0000 N   0  0  0  0  0  0  0  0  0  0  0  0
   -0.0000   -7.5000    0.0000 C   0  0  0  0  0  0  0  0  0  0  0  0
  1  2  3  0
  2  3  1  0
  3  4  1  0
  4  5  1  0
  5  6  1  0
  6  7  1  0
  7  8  1  0
  7  9  1  0
  5 10  1  0
 10 11  1  0
M  END
>  <Title>  (259) 
idAAIAgen14

$$$$

     RDKit          2D

 21 22  0  0  0  0  0  0  0  0999 V2000
   -5.9827   -4.1011    0.0000 C   0  0  0  0  0  0  0  0  0  0  0  0
   -4.9790   -5.2159    0.0000 C   0  0  0  0  0  0  0  0  0  0  0  0
   -3.5118   -4.9040    0.0000 C   0  0  0  0  0  0  0  0  0  0  0  0
   -2.5081   -6.0187    0.0000 C   0  0  0  0  0  0  0  0  0  0  0  0
   -2.9716   -7.4453    0.0000 C   0  0  0  0  0  0  0  0  0  0  0  0
   -1.0409   -5.7068    0.0000 C   0  0  0  0  0  0  0  0  0  0  0  0
   -0.0372   -6.8216    0.0000 O   0  0  0  0  0  0  0  0  0  0  0  0
   -0.5773   -4.2803    0.0000 N   0  0  0  0  0  0  0  0  0  0  0  0
    0.8899   -3.9684    0.0000 C   0  0  0  0  0  0  0  0  0  0  0  0
    2.0046   -4.9721    0.0000 N   0  0  0  0  0  0  0  0  0  0  0  0
    3.3037   -4.2221    0.0000 N   0  0  0  0  0  0  0  0  0  0  0  0
    2.9918   -2.7549    0.0000 N   0  0  0  0  0  0  0  0  0  0  0  0
    1.5000   -2.5981    0.0000 N   0  0  0  0  0  0  0  0  0  0  0  0
    0.7500   -1.2990    0.0000 C   0  0  0  0  0  0  0  0  0  0  0  0
    1.5000    0.0000    0.0000 C   0  0  0  0  0  0  0  0  0  0  0  0
    0.7500    1.2990    0.0000 C   0  0  0  0  0  0  0  0  0  0  0  0
   -0.7500    1.2990    0.0000 C   0  0  0  0  0  0  0  0  0  0  0  0
   -1.5000    2.5981    0.0000 C   0  0  0  0  0  0  0  0  0  0  0  0
   -2.2500    3.8971    0.0000 N   0  0  0  0  0  0  0  0  0  0  0  0
   -1.5000    0.0000    0.0000 C   0  0  0  0  0  0  0  0  0  0  0  0
   -0.7500   -1.2990    0.0000 C   0  0  0  0  0  0  0  0  0  0  0  0
  1  2  1  0
  2  3  1  0
  3  4  1  0
  4  5  1  0
  4  6  1  0
  6  7  2  0
  6  8  1  0
  8  9  1  0
  9 10  2  0
 10 11  1  0
 11 12  2  0
 12 13  1  0
 13 14  1  0
 14 15  2  0
 15 16  1  0
 16 17  2  0
 17 18  1  0
 18 19  3  0
 17 20  1  0
 20 21  2  0
 13  9  1  0
 21 14  1  0
M  END
>  <Title>  (260) 
idAAIBgen14

$$$$

     RDKit          2D

 33 37  0  0  0  0  0  0  0  0999 V2000
   -2.6401   -3.1891    0.0000 C   0  0  0  0  0  0  0  0  0  0  0  0
   -1.2135   -2.7256    0.0000 C   0  0  0  0  0  0  0  0  0  0  0  0
   -0.0000   -3.6073    0.0000 C   0  0  0  0  0  0  0  0  0  0  0  0
    1.2135   -2.7256    0.0000 C   0  0  0  0  0  0  0  0  0  0  0  0
    2.6401   -3.1891    0.0000 C   0  0  0  0  0  0  0  0  0  0  0  0
    3.7548   -2.1855    0.0000 O   0  0  0  0  0  0  0  0  0  0  0  0
    2.9520   -4.6564    0.0000 N   0  0  0  0  0  0  0  0  0  0  0  0
    4.3786   -5.1199    0.0000 C   0  0  0  0  0  0  0  0  0  0  0  0
    5.5921   -4.2382    0.0000 N   0  0  0  0  0  0  0  0  0  0  0  0
    6.8056   -5.1199    0.0000 N   0  0  0  0  0  0  0  0  0  0  0  0
    6.3421   -6.5465    0.0000 N   0  0  0  0  0  0  0  0  0  0  0  0
    4.8421   -6.5465    0.0000 N   0  0  0  0  0  0  0  0  0  0  0  0
    3.9604   -7.7600    0.0000 N   0  0  0  0  0  0  0  0  0  0  0  0
    4.4239   -9.1866    0.0000 C   0  0  0  0  0  0  0  0  0  0  0  0
    3.2104  -10.0683    0.0000 C   0  0  0  0  0  0  0  0  0  0  0  0
    1.9969   -9.1866    0.0000 C   0  0  0  0  0  0  0  0  0  0  0  0
    0.5703   -9.6501    0.0000 C   0  0  0  0  0  0  0  0  0  0  0  0
    0.2584  -11.1173    0.0000 O   0  0  0  0  0  0  0  0  0  0  0  0
   -0.5444   -8.6464    0.0000 N   0  0  0  0  0  0  0  0  0  0  0  0
   -1.9710   -9.1099    0.0000 C   0  0  0  0  0  0  0  0  0  0  0  0
   -3.0857   -8.1062    0.0000 N   0  0  0  0  0  0  0  0  0  0  0  0
   -4.5123   -8.5698    0.0000 N   0  0  0  0  0  0  0  0  0  0  0  0
   -4.8242  -10.0370    0.0000 N   0  0  0  0  0  0  0  0  0  0  0  0
   -3.7095  -11.0407    0.0000 N   0  0  0  0  0  0  0  0  0  0  0  0
   -2.2829  -10.5772    0.0000 N   0  0  0  0  0  0  0  0  0  0  0  0
    2.4604   -7.7600    0.0000 C   0  0  0  0  0  0  0  0  0  0  0  0
    1.5787   -6.5465    0.0000 O   0  0  0  0  0  0  0  0  0  0  0  0
    0.7500   -1.2990    0.0000 C   0  0  0  0  0  0  0  0  0  0  0  0
    1.5000    0.0000    0.0000 C   0  0  0  0  0  0  0  0  0  0  0  0
    0.7500    1.2990    0.0000 C   0  0  0  0  0  0  0  0  0  0  0  0
   -0.7500    1.2990    0.0000 C   0  0  0  0  0  0  0  0  0  0  0  0
   -1.5000    0.0000    0.0000 C   0  0  0  0  0  0  0  0  0  0  0  0
   -0.7500   -1.2990    0.0000 C   0  0  0  0  0  0  0  0  0  0  0  0
  1  2  1  0
  2  3  2  0
  3  4  1  0
  4  5  1  0
  5  6  2  0
  5  7  1  0
  7  8  1  0
  8  9  2  0
  9 10  1  0
 10 11  2  0
 11 12  1  0
 12 13  1  0
 13 14  1  0
 14 15  1  0
 15 16  2  0
 16 17  1  0
 17 18  2  0
 17 19  1  0
 19 20  1  0
 20 21  2  0
 21 22  1  0
 22 23  2  0
 23 24  1  0
 24 25  2  0
 16 26  1  0
 26 27  2  0
  4 28  1  0
 28 29  2  0
 29 30  1  0
 30 31  2  0
 31 32  1  0
 32 33  2  0
 33  2  1  0
 12  8  1  0
 26 13  1  0
 33 28  1  0
 25 20  1  0
M  END
>  <Title>  (261) 
idAAICgen14

$$$$

     RDKit          2D

 12 12  0  0  0  0  0  0  0  0999 V2000
    7.5000   -2.5981    0.0000 C   0  0  0  0  0  0  0  0  0  0  0  0
    6.0000   -2.5981    0.0000 C   0  0  0  0  0  0  0  0  0  0  0  0
    5.2500   -1.2990    0.0000 C   0  0  0  0  0  0  0  0  0  0  0  0
    3.7500   -1.2990    0.0000 C   0  0  0  0  0  0  0  0  0  0  0  0
    3.0000   -2.5981    0.0000 O   0  0  0  0  0  0  0  0  0  0  0  0
    3.0000    0.0000    0.0000 N   0  0  0  0  0  0  0  0  0  0  0  0
    1.5000    0.0000    0.0000 C   0  0  0  0  0  0  0  0  0  0  0  0
    0.7500   -1.2990    0.0000 C   0  0  0  0  0  0  0  0  0  0  0  0
   -0.7500   -1.2990    0.0000 C   0  0  0  0  0  0  0  0  0  0  0  0
   -1.5000    0.0000    0.0000 C   0  0  0  0  0  0  0  0  0  0  0  0
   -0.7500    1.2990    0.0000 N   0  0  0  0  0  0  0  0  0  0  0  0
    0.7500    1.2990    0.0000 C   0  0  0  0  0  0  0  0  0  0  0  0
  1  2  1  0
  2  3  1  0
  3  4  1  0
  4  5  2  0
  4  6  1  0
  6  7  1  0
  7  8  2  0
  8  9  1  0
  9 10  2  0
 10 11  1  0
 11 12  2  0
 12  7  1  0
M  END
>  <Title>  (262) 
idAAIDgen14

$$$$

     RDKit          2D

  7  6  0  0  0  0  0  0  0  0999 V2000
    0.0000    0.0000    0.0000 C   0  0  0  0  0  0  0  0  0  0  0  0
    1.2990    0.7500    0.0000 C   0  0  0  0  0  0  0  0  0  0  0  0
    2.5981   -0.0000    0.0000 C   0  0  0  0  0  0  0  0  0  0  0  0
    3.8971    0.7500    0.0000 N   0  0  0  0  0  0  0  0  0  0  0  0
    5.1962   -0.0000    0.0000 C   0  0  0  0  0  0  0  0  0  0  0  0
    6.4952    0.7500    0.0000 C   0  0  0  0  0  0  0  0  0  0  0  0
    7.7942   -0.0000    0.0000 O   0  0  0  0  0  0  0  0  0  0  0  0
  1  2  1  0
  2  3  2  3
  3  4  1  0
  4  5  1  0
  5  6  1  0
  6  7  2  0
M  END
>  <Title>  (263) 
idAAIEgen14

$$$$

     RDKit          2D

 38 42  0  0  0  0  0  0  0  0999 V2000
   -3.1771   -1.2990    0.0000 C   0  0  0  0  0  0  0  0  0  0  0  0
   -1.9635   -2.1807    0.0000 C   0  0  0  0  0  0  0  0  0  0  0  0
   -2.4271   -3.6073    0.0000 C   0  0  0  0  0  0  0  0  0  0  0  0
   -1.9635   -5.0339    0.0000 C   0  0  0  0  0  0  0  0  0  0  0  0
   -0.7500   -5.9156    0.0000 C   0  0  0  0  0  0  0  0  0  0  0  0
    0.7500   -5.9156    0.0000 C   0  0  0  0  0  0  0  0  0  0  0  0
    1.9635   -5.0339    0.0000 C   0  0  0  0  0  0  0  0  0  0  0  0
    3.1771   -5.9156    0.0000 C   0  0  0  0  0  0  0  0  0  0  0  0
    4.5474   -5.3055    0.0000 O   0  0  0  0  0  0  0  0  0  0  0  0
    3.0203   -7.4073    0.0000 N   0  0  0  0  0  0  0  0  0  0  0  0
    4.2338   -8.2890    0.0000 C   0  0  0  0  0  0  0  0  0  0  0  0
    5.6604   -7.8255    0.0000 N   0  0  0  0  0  0  0  0  0  0  0  0
    6.5420   -9.0390    0.0000 N   0  0  0  0  0  0  0  0  0  0  0  0
    5.6604  -10.2525    0.0000 N   0  0  0  0  0  0  0  0  0  0  0  0
    4.2338   -9.7890    0.0000 N   0  0  0  0  0  0  0  0  0  0  0  0
    3.0203  -10.6707    0.0000 N   0  0  0  0  0  0  0  0  0  0  0  0
    1.5387  -10.4361    0.0000 C   0  0  0  0  0  0  0  0  0  0  0  0
    1.3041  -11.9176    0.0000 C   0  0  0  0  0  0  0  0  0  0  0  0
    0.0905  -12.7993    0.0000 C   0  0  0  0  0  0  0  0  0  0  0  0
    0.2473  -14.2910    0.0000 O   0  0  0  0  0  0  0  0  0  0  0  0
   -1.2798  -12.1892    0.0000 N   0  0  0  0  0  0  0  0  0  0  0  0
   -2.4933  -13.0708    0.0000 C   0  0  0  0  0  0  0  0  0  0  0  0
   -3.8636  -12.4607    0.0000 N   0  0  0  0  0  0  0  0  0  0  0  0
   -5.0771  -13.3424    0.0000 N   0  0  0  0  0  0  0  0  0  0  0  0
   -4.9203  -14.8342    0.0000 N   0  0  0  0  0  0  0  0  0  0  0  0
   -3.5500  -15.4443    0.0000 N   0  0  0  0  0  0  0  0  0  0  0  0
   -2.3365  -14.5626    0.0000 N   0  0  0  0  0  0  0  0  0  0  0  0
    2.7856  -12.1522    0.0000 C   0  0  0  0  0  0  0  0  0  0  0  0
    3.6673  -13.3658    0.0000 O   0  0  0  0  0  0  0  0  0  0  0  0
    2.4271   -3.6073    0.0000 C   0  0  0  0  0  0  0  0  0  0  0  0
    3.9271   -3.6073    0.0000 O   0  0  0  0  0  0  0  0  0  0  0  0
    1.9635   -2.1807    0.0000 O   0  0  0  0  0  0  0  0  0  0  0  0
    0.7500   -1.2990    0.0000 C   0  0  0  0  0  0  0  0  0  0  0  0
    1.5000    0.0000    0.0000 C   0  0  0  0  0  0  0  0  0  0  0  0
    0.7500    1.2990    0.0000 C   0  0  0  0  0  0  0  0  0  0  0  0
   -0.7500    1.2990    0.0000 C   0  0  0  0  0  0  0  0  0  0  0  0
   -1.5000    0.0000    0.0000 C   0  0  0  0  0  0  0  0  0  0  0  0
   -0.7500   -1.2990    0.0000 C   0  0  0  0  0  0  0  0  0  0  0  0
  1  2  1  0
  2  3  1  0
  3  4  1  0
  4  5  1  0
  5  6  1  0
  6  7  1  0
  7  8  1  0
  8  9  2  0
  8 10  1  0
 10 11  1  0
 11 12  2  0
 12 13  1  0
 13 14  2  0
 14 15  1  0
 15 16  1  0
 16 17  1  0
 17 18  2  0
 18 19  1  0
 19 20  2  0
 19 21  1  0
 21 22  1  0
 22 23  2  0
 23 24  1  0
 24 25  2  0
 25 26  1  0
 26 27  2  0
 18 28  1  0
 28 29  2  0
  7 30  1  0
 30 31  2  0
 30 32  1  0
 32 33  1  0
 33 34  2  0
 34 35  1  0
 35 36  2  0
 36 37  1  0
 37 38  2  0
 38  2  1  0
 15 11  1  0
 28 16  1  0
 38 33  1  0
 27 22  1  0
M  END
>  <Title>  (264) 
idAAIFgen14

$$$$

     RDKit          2D

 23 22  0  0  0  0  0  0  0  0999 V2000
    0.0000    0.0000    0.0000 C   0  0  0  0  0  0  0  0  0  0  0  0
    1.2990    0.7500    0.0000 C   0  0  0  0  0  0  0  0  0  0  0  0
    2.5981   -0.0000    0.0000 C   0  0  0  0  0  0  0  0  0  0  0  0
    3.8971    0.7500    0.0000 C   0  0  0  0  0  0  0  0  0  0  0  0
    5.1962   -0.0000    0.0000 C   0  0  0  0  0  0  0  0  0  0  0  0
    6.4952    0.7500    0.0000 C   0  0  0  0  0  0  0  0  0  0  0  0
    7.7942   -0.0000    0.0000 C   0  0  0  0  0  0  0  0  0  0  0  0
    9.0933    0.7500    0.0000 C   0  0  0  0  0  0  0  0  0  0  0  0
   10.3923   -0.0000    0.0000 C   0  0  0  0  0  0  0  0  0  0  0  0
   11.6913    0.7500    0.0000 C   0  0  0  0  0  0  0  0  0  0  0  0
   12.9904   -0.0000    0.0000 C   0  0  0  0  0  0  0  0  0  0  0  0
   14.2894    0.7500    0.0000 C   0  0  0  0  0  0  0  0  0  0  0  0
   15.5885   -0.0000    0.0000 C   0  0  0  0  0  0  0  0  0  0  0  0
   16.8875    0.7500    0.0000 C   0  0  0  0  0  0  0  0  0  0  0  0
   18.1865   -0.0000    0.0000 C   0  0  0  0  0  0  0  0  0  0  0  0
   19.4856    0.7500    0.0000 C   0  0  0  0  0  0  0  0  0  0  0  0
   20.7846   -0.0000    0.0000 C   0  0  0  0  0  0  0  0  0  0  0  0
   22.0836    0.7500    0.0000 C   0  0  0  0  0  0  0  0  0  0  0  0
   23.3827   -0.0000    0.0000 C   0  0  0  0  0  0  0  0  0  0  0  0
   24.6817    0.7500    0.0000 C   0  0  0  0  0  0  0  0  0  0  0  0
   25.9808   -0.0000    0.0000 C   0  0  0  0  0  0  0  0  0  0  0  0
   27.2798    0.7500    0.0000 C   0  0  0  0  0  0  0  0  0  0  0  0
   28.5788   -0.0000    0.0000 C   0  0  0  0  0  0  0  0  0  0  0  0
  1  2  1  0
  2  3  1  0
  3  4  1  0
  4  5  1  0
  5  6  1  0
  6  7  1  0
  7  8  1  0
  8  9  1  0
  9 10  1  0
 10 11  1  0
 11 12  1  0
 12 13  1  0
 13 14  1  0
 14 15  1  0
 15 16  1  0
 16 17  1  0
 17 18  1  0
 18 19  1  0
 19 20  1  0
 20 21  1  0
 21 22  1  0
 22 23  1  0
M  END
>  <Title>  (265) 
idAAIGgen14

$$$$

     RDKit          2D

 10 10  0  0  0  0  0  0  0  0999 V2000
    5.7760   -2.5981    0.0000 C   0  0  0  0  0  0  0  0  0  0  0  0
    5.0260   -1.2990    0.0000 C   0  0  0  0  0  0  0  0  0  0  0  0
    3.5260   -1.2990    0.0000 C   0  0  0  0  0  0  0  0  0  0  0  0
    2.7760   -2.5981    0.0000 O   0  0  0  0  0  0  0  0  0  0  0  0
    2.7760    0.0000    0.0000 N   0  0  0  0  0  0  0  0  0  0  0  0
    1.2760    0.0000    0.0000 C   0  0  0  0  0  0  0  0  0  0  0  0
    0.3943    1.2135    0.0000 C   0  0  0  0  0  0  0  0  0  0  0  0
   -1.0323    0.7500    0.0000 C   0  0  0  0  0  0  0  0  0  0  0  0
   -1.0323   -0.7500    0.0000 C   0  0  0  0  0  0  0  0  0  0  0  0
    0.3943   -1.2135    0.0000 C   0  0  0  0  0  0  0  0  0  0  0  0
  1  2  1  0
  2  3  1  0
  3  4  2  0
  3  5  1  0
  5  6  1  0
  6  7  2  0
  7  8  1  0
  8  9  1  0
  9 10  1  0
 10  6  1  0
M  END
>  <Title>  (266) 
idAAIHgen14

$$$$

     RDKit          2D

  7  7  0  0  0  0  0  0  0  0999 V2000
    2.3907    1.0037    0.0000 C   0  0  0  0  0  0  0  0  0  0  0  0
    1.2760    0.0000    0.0000 C   0  0  0  0  0  0  0  0  0  0  0  0
    2.3907   -1.0037    0.0000 C   0  0  0  0  0  0  0  0  0  0  0  0
    0.3943    1.2135    0.0000 N   0  0  0  0  0  0  0  0  0  0  0  0
   -1.0323    0.7500    0.0000 C   0  0  0  0  0  0  0  0  0  0  0  0
   -1.0323   -0.7500    0.0000 C   0  0  0  0  0  0  0  0  0  0  0  0
    0.3943   -1.2135    0.0000 N   0  0  0  0  0  0  0  0  0  0  0  0
  1  2  1  0
  2  3  1  0
  2  4  1  0
  4  5  2  0
  5  6  1  0
  6  7  1  0
  7  2  1  0
M  END
>  <Title>  (267) 
idAAIIgen14

$$$$

     RDKit          2D

  5  4  0  0  0  0  0  0  0  0999 V2000
    0.0000    0.0000    0.0000 C   0  0  0  0  0  0  0  0  0  0  0  0
    1.2990    0.7500    0.0000 C   0  0  0  0  0  0  0  0  0  0  0  0
    2.5981   -0.0000    0.0000 C   0  0  0  0  0  0  0  0  0  0  0  0
    3.8971    0.7500    0.0000 C   0  0  0  0  0  0  0  0  0  0  0  0
    2.5981   -1.5000    0.0000 C   0  0  0  0  0  0  0  0  0  0  0  0
  1  2  2  0
  2  3  1  0
  3  4  1  0
  3  5  1  0
M  END
>  <Title>  (268) 
idAAIJgen14

$$$$

     RDKit          2D

 37 41  0  0  0  0  0  0  0  0999 V2000
  -14.1415   -3.7883    0.0000 C   0  0  0  0  0  0  0  0  0  0  0  0
  -13.0009   -4.7625    0.0000 C   0  0  0  0  0  0  0  0  0  0  0  0
  -11.5869   -4.2618    0.0000 C   0  0  0  0  0  0  0  0  0  0  0  0
  -10.4463   -5.2360    0.0000 C   0  0  0  0  0  0  0  0  0  0  0  0
   -9.0323   -4.7353    0.0000 C   0  0  0  0  0  0  0  0  0  0  0  0
   -7.8917   -5.7094    0.0000 C   0  0  0  0  0  0  0  0  0  0  0  0
   -6.4778   -5.2087    0.0000 C   0  0  0  0  0  0  0  0  0  0  0  0
   -5.3372   -6.1829    0.0000 C   0  0  0  0  0  0  0  0  0  0  0  0
   -5.6105   -7.6578    0.0000 O   0  0  0  0  0  0  0  0  0  0  0  0
   -3.9232   -5.6822    0.0000 N   0  0  0  0  0  0  0  0  0  0  0  0
   -2.7826   -6.6563    0.0000 C   0  0  0  0  0  0  0  0  0  0  0  0
   -2.9003   -8.1517    0.0000 N   0  0  0  0  0  0  0  0  0  0  0  0
   -1.5144   -8.7257    0.0000 N   0  0  0  0  0  0  0  0  0  0  0  0
   -0.5403   -7.5851    0.0000 N   0  0  0  0  0  0  0  0  0  0  0  0
   -1.3240   -6.3062    0.0000 N   0  0  0  0  0  0  0  0  0  0  0  0
   -0.7500   -4.9204    0.0000 N   0  0  0  0  0  0  0  0  0  0  0  0
    0.7500   -4.9204    0.0000 C   0  0  0  0  0  0  0  0  0  0  0  0
    1.8107   -3.8597    0.0000 C   0  0  0  0  0  0  0  0  0  0  0  0
    1.8107   -2.3597    0.0000 C   0  0  0  0  0  0  0  0  0  0  0  0
    3.1965   -1.7857    0.0000 C   0  0  0  0  0  0  0  0  0  0  0  0
    4.3865   -2.6988    0.0000 C   0  0  0  0  0  0  0  0  0  0  0  0
    5.7723   -2.1248    0.0000 C   0  0  0  0  0  0  0  0  0  0  0  0
    5.9681   -0.6376    0.0000 C   0  0  0  0  0  0  0  0  0  0  0  0
    4.7781    0.2755    0.0000 C   0  0  0  0  0  0  0  0  0  0  0  0
    3.3923   -0.2985    0.0000 C   0  0  0  0  0  0  0  0  0  0  0  0
    0.7500   -1.2990    0.0000 C   0  0  0  0  0  0  0  0  0  0  0  0
    1.5000    0.0000    0.0000 C   0  0  0  0  0  0  0  0  0  0  0  0
    0.7500    1.2990    0.0000 C   0  0  0  0  0  0  0  0  0  0  0  0
   -0.7500    1.2990    0.0000 C   0  0  0  0  0  0  0  0  0  0  0  0
   -1.5000    0.0000    0.0000 C   0  0  0  0  0  0  0  0  0  0  0  0
   -0.7500   -1.2990    0.0000 C   0  0  0  0  0  0  0  0  0  0  0  0
   -1.8107   -2.3597    0.0000 C   0  0  0  0  0  0  0  0  0  0  0  0
   -3.1097   -1.6097    0.0000 C   0  0  0  0  0  0  0  0  0  0  0  0
   -4.4087   -2.3597    0.0000 C   0  0  0  0  0  0  0  0  0  0  0  0
   -4.4087   -3.8597    0.0000 C   0  0  0  0  0  0  0  0  0  0  0  0
   -3.1097   -4.6097    0.0000 C   0  0  0  0  0  0  0  0  0  0  0  0
   -1.8107   -3.8597    0.0000 C   0  0  0  0  0  0  0  0  0  0  0  0
  1  2  1  0
  2  3  1  0
  3  4  1  0
  4  5  1  0
  5  6  2  3
  6  7  1  0
  7  8  1  0
  8  9  2  0
  8 10  1  0
 10 11  1  0
 11 12  2  0
 12 13  1  0
 13 14  2  0
 14 15  1  0
 15 16  1  0
 16 17  1  0
 17 18  1  0
 18 19  1  0
 19 20  1  0
 20 21  2  0
 21 22  1  0
 22 23  2  0
 23 24  1  0
 24 25  2  0
 19 26  1  0
 26 27  2  0
 27 28  1  0
 28 29  2  0
 29 30  1  0
 30 31  2  0
 31 32  1  0
 32 33  2  0
 33 34  1  0
 34 35  2  0
 35 36  1  0
 36 37  2  0
 15 11  1  0
 37 16  1  0
 25 20  1  0
 31 26  1  0
 37 32  1  0
M  END
>  <Title>  (269) 
idAAIKgen14

$$$$

     RDKit          2D

 10 10  0  0  0  0  0  0  0  0999 V2000
    6.0000   -2.5981    0.0000 C   0  0  0  0  0  0  0  0  0  0  0  0
    5.2500   -1.2990    0.0000 C   0  0  0  0  0  0  0  0  0  0  0  0
    3.7500   -1.2990    0.0000 C   0  0  0  0  0  0  0  0  0  0  0  0
    3.0000    0.0000    0.0000 N   0  0  0  0  0  0  0  0  0  0  0  0
    1.5000    0.0000    0.0000 C   0  0  0  0  0  0  0  0  0  0  0  0
    0.7500   -1.2990    0.0000 C   0  0  0  0  0  0  0  0  0  0  0  0
   -0.7500   -1.2990    0.0000 C   0  0  0  0  0  0  0  0  0  0  0  0
   -1.5000    0.0000    0.0000 C   0  0  0  0  0  0  0  0  0  0  0  0
   -0.7500    1.2990    0.0000 C   0  0  0  0  0  0  0  0  0  0  0  0
    0.7500    1.2990    0.0000 C   0  0  0  0  0  0  0  0  0  0  0  0
  1  2  1  0
  2  3  2  3
  3  4  1  0
  4  5  1  0
  5  6  2  0
  6  7  1  0
  7  8  2  0
  8  9  1  0
  9 10  2  0
 10  5  1  0
M  END
>  <Title>  (270) 
idAAILgen14

$$$$

     RDKit          2D

 29 32  0  0  0  0  0  0  0  0999 V2000
   -1.8107   -3.8597    0.0000 C   0  0  0  0  0  0  0  0  0  0  0  0
   -0.7500   -2.7990    0.0000 C   0  0  0  0  0  0  0  0  0  0  0  0
    0.7500   -2.7990    0.0000 C   0  0  0  0  0  0  0  0  0  0  0  0
    1.8107   -3.8597    0.0000 N   0  0  0  0  0  0  0  0  0  0  0  0
    1.4224   -5.3086    0.0000 C   0  0  0  0  0  0  0  0  0  0  0  0
   -0.0265   -5.6968    0.0000 O   0  0  0  0  0  0  0  0  0  0  0  0
    2.4831   -6.3692    0.0000 N   0  0  0  0  0  0  0  0  0  0  0  0
    2.0949   -7.8181    0.0000 C   0  0  0  0  0  0  0  0  0  0  0  0
    3.1555   -8.8788    0.0000 C   0  0  0  0  0  0  0  0  0  0  0  0
    4.6371   -8.6441    0.0000 C   0  0  0  0  0  0  0  0  0  0  0  0
    5.3180   -9.9807    0.0000 C   0  0  0  0  0  0  0  0  0  0  0  0
    4.2574  -11.0413    0.0000 C   0  0  0  0  0  0  0  0  0  0  0  0
    4.4920  -12.5228    0.0000 C   0  0  0  0  0  0  0  0  0  0  0  0
    5.8924  -13.0604    0.0000 O   0  0  0  0  0  0  0  0  0  0  0  0
    3.3263  -13.4668    0.0000 N   0  0  0  0  0  0  0  0  0  0  0  0
    3.5610  -14.9484    0.0000 C   0  0  0  0  0  0  0  0  0  0  0  0
    2.3952  -15.8923    0.0000 N   0  0  0  0  0  0  0  0  0  0  0  0
    2.6299  -17.3739    0.0000 N   0  0  0  0  0  0  0  0  0  0  0  0
    4.0303  -17.9114    0.0000 N   0  0  0  0  0  0  0  0  0  0  0  0
    5.1960  -16.9674    0.0000 N   0  0  0  0  0  0  0  0  0  0  0  0
    4.9613  -15.4859    0.0000 N   0  0  0  0  0  0  0  0  0  0  0  0
    2.9209  -10.3603    0.0000 C   0  0  0  0  0  0  0  0  0  0  0  0
    1.5844  -11.0413    0.0000 O   0  0  0  0  0  0  0  0  0  0  0  0
    0.7500   -1.2990    0.0000 C   0  0  0  0  0  0  0  0  0  0  0  0
    1.5000    0.0000    0.0000 C   0  0  0  0  0  0  0  0  0  0  0  0
    0.7500    1.2990    0.0000 C   0  0  0  0  0  0  0  0  0  0  0  0
   -0.7500    1.2990    0.0000 C   0  0  0  0  0  0  0  0  0  0  0  0
   -1.5000    0.0000    0.0000 C   0  0  0  0  0  0  0  0  0  0  0  0
   -0.7500   -1.2990    0.0000 C   0  0  0  0  0  0  0  0  0  0  0  0
  1  2  1  0
  2  3  2  0
  3  4  1  0
  4  5  1  0
  5  6  2  0
  5  7  1  0
  7  8  1  0
  8  9  1  0
  9 10  2  0
 10 11  1  0
 11 12  2  0
 12 13  1  0
 13 14  2  0
 13 15  1  0
 15 16  1  0
 16 17  2  0
 17 18  1  0
 18 19  2  0
 19 20  1  0
 20 21  2  0
 12 22  1  0
 22 23  2  0
  3 24  1  0
 24 25  2  0
 25 26  1  0
 26 27  2  0
 27 28  1  0
 28 29  2  0
 29  2  1  0
 22  9  1  0
 29 24  1  0
 21 16  1  0
M  END
>  <Title>  (271) 
idAAIMgen14

$$$$

     RDKit          2D

  7  7  0  0  0  0  0  0  0  0999 V2000
    3.5260   -1.2990    0.0000 C   0  0  0  0  0  0  0  0  0  0  0  0
    2.7760    0.0000    0.0000 O   0  0  0  0  0  0  0  0  0  0  0  0
    1.2760    0.0000    0.0000 C   0  0  0  0  0  0  0  0  0  0  0  0
    0.3943    1.2135    0.0000 C   0  0  0  0  0  0  0  0  0  0  0  0
   -1.0323    0.7500    0.0000 C   0  0  0  0  0  0  0  0  0  0  0  0
   -1.0323   -0.7500    0.0000 C   0  0  0  0  0  0  0  0  0  0  0  0
    0.3943   -1.2135    0.0000 C   0  0  0  0  0  0  0  0  0  0  0  0
  1  2  1  0
  2  3  1  0
  3  4  2  0
  4  5  1  0
  5  6  1  0
  6  7  2  0
  7  3  1  0
M  END
>  <Title>  (272) 
idAAINgen14

$$$$

     RDKit          2D

 18 20  0  0  0  0  0  0  0  0999 V2000
   -0.8074    5.5113    0.0000 C   0  0  0  0  0  0  0  0  0  0  0  0
   -1.3344    4.1069    0.0000 C   0  0  0  0  0  0  0  0  0  0  0  0
   -2.5863    4.9332    0.0000 C   0  0  0  0  0  0  0  0  0  0  0  0
    0.1520    3.9056    0.0000 C   0  0  0  0  0  0  0  0  0  0  0  0
    0.9784    5.1574    0.0000 O   0  0  0  0  0  0  0  0  0  0  0  0
    0.9214    2.6179    0.0000 N   0  0  0  0  0  0  0  0  0  0  0  0
    0.3943    1.2135    0.0000 C   0  0  0  0  0  0  0  0  0  0  0  0
    1.2760    0.0000    0.0000 N   0  0  0  0  0  0  0  0  0  0  0  0
    0.3943   -1.2135    0.0000 N   0  0  0  0  0  0  0  0  0  0  0  0
   -1.0323   -0.7500    0.0000 N   0  0  0  0  0  0  0  0  0  0  0  0
   -1.0323    0.7500    0.0000 N   0  0  0  0  0  0  0  0  0  0  0  0
   -2.2841    1.5763    0.0000 C   0  0  0  0  0  0  0  0  0  0  0  0
   -3.5107    0.7129    0.0000 C   0  0  0  0  0  0  0  0  0  0  0  0
   -4.8718    1.3435    0.0000 C   0  0  0  0  0  0  0  0  0  0  0  0
   -5.0062    2.8374    0.0000 C   0  0  0  0  0  0  0  0  0  0  0  0
   -6.3673    3.4680    0.0000 O   0  0  0  0  0  0  0  0  0  0  0  0
   -3.7796    3.7008    0.0000 C   0  0  0  0  0  0  0  0  0  0  0  0
   -2.4186    3.0703    0.0000 C   0  0  0  0  0  0  0  0  0  0  0  0
  1  2  1  0
  2  3  1  0
  2  4  1  0
  4  5  2  0
  4  6  1  0
  6  7  1  0
  7  8  2  0
  8  9  1  0
  9 10  2  0
 10 11  1  0
 11 12  1  0
 12 13  2  0
 13 14  1  0
 14 15  2  0
 15 16  1  0
 15 17  1  0
 17 18  2  0
 18  2  1  0
 11  7  1  0
 18 12  1  0
M  END
>  <Title>  (273) 
idAAIOgen14

$$$$

     RDKit          2D

  6  5  0  0  0  0  0  0  0  0999 V2000
    0.0000    0.0000    0.0000 C   0  0  0  0  0  0  0  0  0  0  0  0
    1.2990    0.7500    0.0000 C   0  0  0  0  0  0  0  0  0  0  0  0
    2.5981   -0.0000    0.0000 C   0  0  0  0  0  0  0  0  0  0  0  0
    3.8971    0.7500    0.0000 C   0  0  0  0  0  0  0  0  0  0  0  0
    5.1962   -0.0000    0.0000 C   0  0  0  0  0  0  0  0  0  0  0  0
    6.4952    0.7500    0.0000 C   0  0  0  0  0  0  0  0  0  0  0  0
  1  2  1  0
  2  3  2  3
  3  4  1  0
  4  5  1  0
  5  6  1  0
M  END
>  <Title>  (274) 
idAAIPgen14

$$$$

     RDKit          2D

  9  9  0  0  0  0  0  0  0  0999 V2000
    3.7500   -1.2990    0.0000 C   0  0  0  0  0  0  0  0  0  0  0  0
    3.0000    0.0000    0.0000 C   0  0  0  0  0  0  0  0  0  0  0  0
    3.7500    1.2990    0.0000 C   0  0  0  0  0  0  0  0  0  0  0  0
    1.5000    0.0000    0.0000 C   0  0  0  0  0  0  0  0  0  0  0  0
    0.7500   -1.2990    0.0000 C   0  0  0  0  0  0  0  0  0  0  0  0
   -0.7500   -1.2990    0.0000 C   0  0  0  0  0  0  0  0  0  0  0  0
   -1.5000    0.0000    0.0000 C   0  0  0  0  0  0  0  0  0  0  0  0
   -0.7500    1.2990    0.0000 N   0  0  0  0  0  0  0  0  0  0  0  0
    0.7500    1.2990    0.0000 C   0  0  0  0  0  0  0  0  0  0  0  0
  1  2  1  0
  2  3  1  0
  2  4  1  0
  4  5  2  0
  5  6  1  0
  6  7  2  0
  7  8  1  0
  8  9  2  0
  9  4  1  0
M  END
>  <Title>  (275) 
idAAIQgen14

$$$$

     RDKit          2D

  6  6  0  0  0  0  0  0  0  0999 V2000
    2.7760    0.0000    0.0000 C   0  0  0  0  0  0  0  0  0  0  0  0
    1.2760    0.0000    0.0000 C   0  0  0  0  0  0  0  0  0  0  0  0
    0.3943    1.2135    0.0000 C   0  0  0  0  0  0  0  0  0  0  0  0
   -1.0323    0.7500    0.0000 C   0  0  0  0  0  0  0  0  0  0  0  0
   -1.0323   -0.7500    0.0000 C   0  0  0  0  0  0  0  0  0  0  0  0
    0.3943   -1.2135    0.0000 N   0  0  0  0  0  0  0  0  0  0  0  0
  1  2  1  0
  2  3  2  0
  3  4  1  0
  4  5  2  0
  5  6  1  0
  6  2  1  0
M  END
>  <Title>  (276) 
idAAIRgen14

$$$$

     RDKit          2D

  8  8  0  0  0  0  0  0  0  0999 V2000
    4.5000    0.0000    0.0000 C   0  0  0  0  0  0  0  0  0  0  0  0
    3.0000    0.0000    0.0000 C   0  0  0  0  0  0  0  0  0  0  0  0
    1.5000    0.0000    0.0000 C   0  0  0  0  0  0  0  0  0  0  0  0
    0.7500   -1.2990    0.0000 C   0  0  0  0  0  0  0  0  0  0  0  0
   -0.7500   -1.2990    0.0000 C   0  0  0  0  0  0  0  0  0  0  0  0
   -1.5000    0.0000    0.0000 C   0  0  0  0  0  0  0  0  0  0  0  0
   -0.7500    1.2990    0.0000 C   0  0  0  0  0  0  0  0  0  0  0  0
    0.7500    1.2990    0.0000 C   0  0  0  0  0  0  0  0  0  0  0  0
  1  2  3  0
  2  3  1  0
  3  4  1  0
  4  5  1  0
  5  6  1  0
  6  7  1  0
  7  8  1  0
  8  3  1  0
M  END
>  <Title>  (277) 
idAAISgen14

$$$$

     RDKit          2D

 10 10  0  0  0  0  0  0  0  0999 V2000
    5.2500   -1.2990    0.0000 C   0  0  0  0  0  0  0  0  0  0  0  0
    3.7500   -1.2990    0.0000 C   0  0  0  0  0  0  0  0  0  0  0  0
    3.0000   -2.5981    0.0000 C   0  0  0  0  0  0  0  0  0  0  0  0
    3.0000    0.0000    0.0000 C   0  0  0  0  0  0  0  0  0  0  0  0
    1.5000    0.0000    0.0000 C   0  0  0  0  0  0  0  0  0  0  0  0
    0.7500   -1.2990    0.0000 N   0  0  0  0  0  0  0  0  0  0  0  0
   -0.7500   -1.2990    0.0000 N   0  0  0  0  0  0  0  0  0  0  0  0
   -1.5000    0.0000    0.0000 C   0  0  0  0  0  0  0  0  0  0  0  0
   -0.7500    1.2990    0.0000 N   0  0  0  0  0  0  0  0  0  0  0  0
    0.7500    1.2990    0.0000 N   0  0  0  0  0  0  0  0  0  0  0  0
  1  2  1  0
  2  3  1  0
  2  4  1  0
  4  5  1  0
  5  6  2  0
  6  7  1  0
  7  8  1  0
  8  9  1  0
  9 10  1  0
 10  5  1  0
M  END
>  <Title>  (278) 
idAAITgen14

$$$$

     RDKit          2D

 10 10  0  0  0  0  0  0  0  0999 V2000
    5.2500   -1.2990    0.0000 C   0  0  0  0  0  0  0  0  0  0  0  0
    3.7500   -1.2990    0.0000 C   0  0  0  0  0  0  0  0  0  0  0  0
    3.0000    0.0000    0.0000 C   0  0  0  0  0  0  0  0  0  0  0  0
    3.7500    1.2990    0.0000 O   0  0  0  0  0  0  0  0  0  0  0  0
    1.5000    0.0000    0.0000 C   0  0  0  0  0  0  0  0  0  0  0  0
    0.7500   -1.2990    0.0000 C   0  0  0  0  0  0  0  0  0  0  0  0
   -0.7500   -1.2990    0.0000 C   0  0  0  0  0  0  0  0  0  0  0  0
   -1.5000    0.0000    0.0000 C   0  0  0  0  0  0  0  0  0  0  0  0
   -0.7500    1.2990    0.0000 C   0  0  0  0  0  0  0  0  0  0  0  0
    0.7500    1.2990    0.0000 C   0  0  0  0  0  0  0  0  0  0  0  0
  1  2  1  0
  2  3  1  0
  3  4  1  0
  3  5  1  0
  5  6  2  0
  6  7  1  0
  7  8  2  0
  8  9  1  0
  9 10  2  0
 10  5  1  0
M  END
>  <Title>  (279) 
idAAIUgen14

$$$$

     RDKit          2D

  8  7  0  0  0  0  0  0  0  0999 V2000
    0.0000    0.0000    0.0000 C   0  0  0  0  0  0  0  0  0  0  0  0
    1.2990    0.7500    0.0000 C   0  0  0  0  0  0  0  0  0  0  0  0
    2.5981   -0.0000    0.0000 C   0  0  0  0  0  0  0  0  0  0  0  0
    3.8971    0.7500    0.0000 C   0  0  0  0  0  0  0  0  0  0  0  0
    5.1962   -0.0000    0.0000 C   0  0  0  0  0  0  0  0  0  0  0  0
    6.4952    0.7500    0.0000 C   0  0  0  0  0  0  0  0  0  0  0  0
    7.7942   -0.0000    0.0000 C   0  0  0  0  0  0  0  0  0  0  0  0
    6.4952    2.2500    0.0000 C   0  0  0  0  0  0  0  0  0  0  0  0
  1  2  1  0
  2  3  2  3
  3  4  1  0
  4  5  1  0
  5  6  1  0
  6  7  1  0
  6  8  1  0
M  END
>  <Title>  (280) 
idAAIVgen14

$$$$

     RDKit          2D

  9  9  0  0  0  0  0  0  0  0999 V2000
    5.2500   -1.2990    0.0000 C   0  0  0  0  0  0  0  0  0  0  0  0
    3.7500   -1.2990    0.0000 C   0  0  0  0  0  0  0  0  0  0  0  0
    3.0000    0.0000    0.0000 C   0  0  0  0  0  0  0  0  0  0  0  0
    1.5000    0.0000    0.0000 C   0  0  0  0  0  0  0  0  0  0  0  0
    0.7500   -1.2990    0.0000 C   0  0  0  0  0  0  0  0  0  0  0  0
   -0.7500   -1.2990    0.0000 C   0  0  0  0  0  0  0  0  0  0  0  0
   -1.5000    0.0000    0.0000 C   0  0  0  0  0  0  0  0  0  0  0  0
   -0.7500    1.2990    0.0000 C   0  0  0  0  0  0  0  0  0  0  0  0
    0.7500    1.2990    0.0000 C   0  0  0  0  0  0  0  0  0  0  0  0
  1  2  1  0
  2  3  2  3
  3  4  1  0
  4  5  2  0
  5  6  1  0
  6  7  2  0
  7  8  1  0
  8  9  2  0
  9  4  1  0
M  END
>  <Title>  (281) 
idAAIWgen14

$$$$

     RDKit          2D

 35 39  0  0  0  0  0  0  0  0999 V2000
   -4.3786   -5.1199    0.0000 C   0  0  0  0  0  0  0  0  0  0  0  0
   -2.9520   -4.6564    0.0000 C   0  0  0  0  0  0  0  0  0  0  0  0
   -2.6401   -3.1891    0.0000 C   0  0  0  0  0  0  0  0  0  0  0  0
   -1.2135   -2.7256    0.0000 N   0  0  0  0  0  0  0  0  0  0  0  0
   -0.0000   -3.6073    0.0000 C   0  0  0  0  0  0  0  0  0  0  0  0
    1.2135   -2.7256    0.0000 C   0  0  0  0  0  0  0  0  0  0  0  0
    2.6401   -3.1891    0.0000 C   0  0  0  0  0  0  0  0  0  0  0  0
    3.7548   -2.1855    0.0000 O   0  0  0  0  0  0  0  0  0  0  0  0
    2.9520   -4.6564    0.0000 N   0  0  0  0  0  0  0  0  0  0  0  0
    4.3786   -5.1199    0.0000 C   0  0  0  0  0  0  0  0  0  0  0  0
    5.5921   -4.2382    0.0000 N   0  0  0  0  0  0  0  0  0  0  0  0
    6.8056   -5.1199    0.0000 N   0  0  0  0  0  0  0  0  0  0  0  0
    6.3421   -6.5465    0.0000 N   0  0  0  0  0  0  0  0  0  0  0  0
    4.8421   -6.5465    0.0000 N   0  0  0  0  0  0  0  0  0  0  0  0
    3.9604   -7.7600    0.0000 N   0  0  0  0  0  0  0  0  0  0  0  0
    4.4239   -9.1866    0.0000 C   0  0  0  0  0  0  0  0  0  0  0  0
    3.2104  -10.0683    0.0000 C   0  0  0  0  0  0  0  0  0  0  0  0
    1.9969   -9.1866    0.0000 N   0  0  0  0  0  0  0  0  0  0  0  0
    0.5703   -9.6501    0.0000 C   0  0  0  0  0  0  0  0  0  0  0  0
    0.2584  -11.1173    0.0000 O   0  0  0  0  0  0  0  0  0  0  0  0
   -0.5444   -8.6464    0.0000 N   0  0  0  0  0  0  0  0  0  0  0  0
   -1.9710   -9.1099    0.0000 C   0  0  0  0  0  0  0  0  0  0  0  0
   -3.0857   -8.1062    0.0000 N   0  0  0  0  0  0  0  0  0  0  0  0
   -4.5123   -8.5698    0.0000 N   0  0  0  0  0  0  0  0  0  0  0  0
   -4.8242  -10.0370    0.0000 N   0  0  0  0  0  0  0  0  0  0  0  0
   -3.7095  -11.0407    0.0000 N   0  0  0  0  0  0  0  0  0  0  0  0
   -2.2829  -10.5772    0.0000 N   0  0  0  0  0  0  0  0  0  0  0  0
    2.4604   -7.7600    0.0000 C   0  0  0  0  0  0  0  0  0  0  0  0
    1.5787   -6.5465    0.0000 O   0  0  0  0  0  0  0  0  0  0  0  0
    0.7500   -1.2990    0.0000 C   0  0  0  0  0  0  0  0  0  0  0  0
    1.5000    0.0000    0.0000 C   0  0  0  0  0  0  0  0  0  0  0  0
    0.7500    1.2990    0.0000 C   0  0  0  0  0  0  0  0  0  0  0  0
   -0.7500    1.2990    0.0000 C   0  0  0  0  0  0  0  0  0  0  0  0
   -1.5000    0.0000    0.0000 C   0  0  0  0  0  0  0  0  0  0  0  0
   -0.7500   -1.2990    0.0000 C   0  0  0  0  0  0  0  0  0  0  0  0
  1  2  1  0
  2  3  2  3
  3  4  1  0
  4  5  1  0
  5  6  2  0
  6  7  1  0
  7  8  2  0
  7  9  1  0
  9 10  1  0
 10 11  2  0
 11 12  1  0
 12 13  2  0
 13 14  1  0
 14 15  1  0
 15 16  1  0
 16 17  1  0
 17 18  1  0
 18 19  1  0
 19 20  2  0
 19 21  1  0
 21 22  1  0
 22 23  2  0
 23 24  1  0
 24 25  2  0
 25 26  1  0
 26 27  2  0
 18 28  1  0
 28 29  2  0
  6 30  1  0
 30 31  2  0
 31 32  1  0
 32 33  2  0
 33 34  1  0
 34 35  2  0
 35  4  1  0
 14 10  1  0
 28 15  1  0
 35 30  1  0
 27 22  1  0
M  END
>  <Title>  (282) 
idAAIXgen14

$$$$

     RDKit          2D

 37 41  0  0  0  0  0  0  0  0999 V2000
   -3.1965   -1.7857    0.0000 C   0  0  0  0  0  0  0  0  0  0  0  0
   -1.8107   -2.3597    0.0000 C   0  0  0  0  0  0  0  0  0  0  0  0
   -1.8107   -3.8597    0.0000 C   0  0  0  0  0  0  0  0  0  0  0  0
   -0.7500   -4.9204    0.0000 C   0  0  0  0  0  0  0  0  0  0  0  0
    0.7500   -4.9204    0.0000 C   0  0  0  0  0  0  0  0  0  0  0  0
    1.8107   -3.8597    0.0000 C   0  0  0  0  0  0  0  0  0  0  0  0
    1.8107   -2.3597    0.0000 C   0  0  0  0  0  0  0  0  0  0  0  0
    3.1965   -1.7857    0.0000 C   0  0  0  0  0  0  0  0  0  0  0  0
    3.3923   -0.2985    0.0000 O   0  0  0  0  0  0  0  0  0  0  0  0
    4.3865   -2.6988    0.0000 N   0  0  0  0  0  0  0  0  0  0  0  0
    5.7723   -2.1248    0.0000 C   0  0  0  0  0  0  0  0  0  0  0  0
    6.1225   -0.6662    0.0000 N   0  0  0  0  0  0  0  0  0  0  0  0
    7.6179   -0.5485    0.0000 N   0  0  0  0  0  0  0  0  0  0  0  0
    8.1919   -1.9344    0.0000 N   0  0  0  0  0  0  0  0  0  0  0  0
    7.0513   -2.9085    0.0000 N   0  0  0  0  0  0  0  0  0  0  0  0
    7.1690   -4.4039    0.0000 C   0  0  0  0  0  0  0  0  0  0  0  0
    8.4479   -5.1877    0.0000 C   0  0  0  0  0  0  0  0  0  0  0  0
    8.0978   -6.6462    0.0000 C   0  0  0  0  0  0  0  0  0  0  0  0
    6.6024   -6.7639    0.0000 C   0  0  0  0  0  0  0  0  0  0  0  0
    5.8186   -8.0429    0.0000 O   0  0  0  0  0  0  0  0  0  0  0  0
    4.3192   -8.0036    0.0000 C   0  0  0  0  0  0  0  0  0  0  0  0
    3.6034   -6.6854    0.0000 O   0  0  0  0  0  0  0  0  0  0  0  0
    3.5354   -9.2826    0.0000 N   0  0  0  0  0  0  0  0  0  0  0  0
    2.0359   -9.2433    0.0000 C   0  0  0  0  0  0  0  0  0  0  0  0
    1.3202   -7.9251    0.0000 N   0  0  0  0  0  0  0  0  0  0  0  0
   -0.1793   -7.8858    0.0000 N   0  0  0  0  0  0  0  0  0  0  0  0
   -0.9630   -9.1648    0.0000 N   0  0  0  0  0  0  0  0  0  0  0  0
   -0.2473  -10.4830    0.0000 N   0  0  0  0  0  0  0  0  0  0  0  0
    1.2522  -10.5223    0.0000 N   0  0  0  0  0  0  0  0  0  0  0  0
    6.0284   -5.3781    0.0000 C   0  0  0  0  0  0  0  0  0  0  0  0
    4.5698   -5.0279    0.0000 O   0  0  0  0  0  0  0  0  0  0  0  0
    0.7500   -1.2990    0.0000 C   0  0  0  0  0  0  0  0  0  0  0  0
    1.5000    0.0000    0.0000 C   0  0  0  0  0  0  0  0  0  0  0  0
    0.7500    1.2990    0.0000 C   0  0  0  0  0  0  0  0  0  0  0  0
   -0.7500    1.2990    0.0000 C   0  0  0  0  0  0  0  0  0  0  0  0
   -1.5000    0.0000    0.0000 C   0  0  0  0  0  0  0  0  0  0  0  0
   -0.7500   -1.2990    0.0000 C   0  0  0  0  0  0  0  0  0  0  0  0
  1  2  1  0
  2  3  1  0
  3  4  1  0
  4  5  1  0
  5  6  1  0
  6  7  1  0
  7  8  1  0
  8  9  2  0
  8 10  1  0
 10 11  1  0
 11 12  2  0
 12 13  1  0
 13 14  2  0
 14 15  1  0
 15 16  1  0
 16 17  2  0
 17 18  1  0
 18 19  2  0
 19 20  1  0
 20 21  1  0
 21 22  2  0
 21 23  1  0
 23 24  1  0
 24 25  2  0
 25 26  1  0
 26 27  2  0
 27 28  1  0
 28 29  2  0
 19 30  1  0
 30 31  2  0
  7 32  1  0
 32 33  2  0
 33 34  1  0
 34 35  2  0
 35 36  1  0
 36 37  2  0
 37  2  1  0
 15 11  1  0
 30 16  1  0
 37 32  1  0
 29 24  1  0
M  END
>  <Title>  (283) 
idAAIYgen14

$$$$

     RDKit          2D

 14 14  0  0  0  0  0  0  0  0999 V2000
    9.7500   -3.8971    0.0000 C   0  0  0  0  0  0  0  0  0  0  0  0
    8.2500   -3.8971    0.0000 C   0  0  0  0  0  0  0  0  0  0  0  0
    7.5000   -2.5981    0.0000 C   0  0  0  0  0  0  0  0  0  0  0  0
    6.0000   -2.5981    0.0000 N   0  0  0  0  0  0  0  0  0  0  0  0
    5.2500   -1.2990    0.0000 C   0  0  0  0  0  0  0  0  0  0  0  0
    6.0000    0.0000    0.0000 O   0  0  0  0  0  0  0  0  0  0  0  0
    3.7500   -1.2990    0.0000 C   0  0  0  0  0  0  0  0  0  0  0  0
    3.0000    0.0000    0.0000 C   0  0  0  0  0  0  0  0  0  0  0  0
    1.5000    0.0000    0.0000 C   0  0  0  0  0  0  0  0  0  0  0  0
    0.7500   -1.2990    0.0000 C   0  0  0  0  0  0  0  0  0  0  0  0
   -0.7500   -1.2990    0.0000 C   0  0  0  0  0  0  0  0  0  0  0  0
   -1.5000    0.0000    0.0000 C   0  0  0  0  0  0  0  0  0  0  0  0
   -0.7500    1.2990    0.0000 C   0  0  0  0  0  0  0  0  0  0  0  0
    0.7500    1.2990    0.0000 C   0  0  0  0  0  0  0  0  0  0  0  0
  1  2  1  0
  2  3  1  0
  3  4  1  0
  4  5  1  0
  5  6  2  0
  5  7  1  0
  7  8  1  0
  8  9  1  0
  9 10  2  0
 10 11  1  0
 11 12  2  0
 12 13  1  0
 13 14  2  0
 14  9  1  0
M  END
>  <Title>  (284) 
idAAIZgen14

$$$$

     RDKit          2D

 42 47  0  0  0  0  0  0  0  0999 V2000
   -3.1771   -5.9156    0.0000 C   0  0  0  0  0  0  0  0  0  0  0  0
   -1.9635   -5.0339    0.0000 C   0  0  0  0  0  0  0  0  0  0  0  0
   -0.7500   -5.9156    0.0000 C   0  0  0  0  0  0  0  0  0  0  0  0
    0.7500   -5.9156    0.0000 C   0  0  0  0  0  0  0  0  0  0  0  0
    1.9635   -5.0339    0.0000 C   0  0  0  0  0  0  0  0  0  0  0  0
    2.4271   -3.6073    0.0000 C   0  0  0  0  0  0  0  0  0  0  0  0
    1.9635   -2.1807    0.0000 C   0  0  0  0  0  0  0  0  0  0  0  0
    3.1771   -1.2990    0.0000 C   0  0  0  0  0  0  0  0  0  0  0  0
    3.0203    0.1927    0.0000 O   0  0  0  0  0  0  0  0  0  0  0  0
    4.5474   -1.9091    0.0000 N   0  0  0  0  0  0  0  0  0  0  0  0
    5.7609   -1.0275    0.0000 C   0  0  0  0  0  0  0  0  0  0  0  0
    5.7609    0.4725    0.0000 N   0  0  0  0  0  0  0  0  0  0  0  0
    7.1875    0.9361    0.0000 N   0  0  0  0  0  0  0  0  0  0  0  0
    8.0692   -0.2775    0.0000 N   0  0  0  0  0  0  0  0  0  0  0  0
    7.1875   -1.4910    0.0000 N   0  0  0  0  0  0  0  0  0  0  0  0
    7.6510   -2.9176    0.0000 C   0  0  0  0  0  0  0  0  0  0  0  0
    9.0776   -3.3811    0.0000 C   0  0  0  0  0  0  0  0  0  0  0  0
    9.0776   -4.8811    0.0000 C   0  0  0  0  0  0  0  0  0  0  0  0
    7.6510   -5.3446    0.0000 C   0  0  0  0  0  0  0  0  0  0  0  0
    7.1875   -6.7712    0.0000 C   0  0  0  0  0  0  0  0  0  0  0  0
    8.1912   -7.8859    0.0000 O   0  0  0  0  0  0  0  0  0  0  0  0
    5.7203   -7.0831    0.0000 N   0  0  0  0  0  0  0  0  0  0  0  0
    5.2567   -8.5097    0.0000 C   0  0  0  0  0  0  0  0  0  0  0  0
    3.7895   -8.8215    0.0000 N   0  0  0  0  0  0  0  0  0  0  0  0
    3.3260  -10.2481    0.0000 N   0  0  0  0  0  0  0  0  0  0  0  0
    4.3297  -11.3628    0.0000 N   0  0  0  0  0  0  0  0  0  0  0  0
    5.7969  -11.0510    0.0000 N   0  0  0  0  0  0  0  0  0  0  0  0
    6.2604   -9.6244    0.0000 N   0  0  0  0  0  0  0  0  0  0  0  0
    6.7693   -4.1311    0.0000 C   0  0  0  0  0  0  0  0  0  0  0  0
    5.2693   -4.1311    0.0000 O   0  0  0  0  0  0  0  0  0  0  0  0
    0.7500   -1.2990    0.0000 C   0  0  0  0  0  0  0  0  0  0  0  0
    1.5000    0.0000    0.0000 C   0  0  0  0  0  0  0  0  0  0  0  0
    0.7500    1.2990    0.0000 C   0  0  0  0  0  0  0  0  0  0  0  0
   -0.7500    1.2990    0.0000 C   0  0  0  0  0  0  0  0  0  0  0  0
   -1.5000    0.0000    0.0000 C   0  0  0  0  0  0  0  0  0  0  0  0
   -0.7500   -1.2990    0.0000 C   0  0  0  0  0  0  0  0  0  0  0  0
   -1.9635   -2.1807    0.0000 C   0  0  0  0  0  0  0  0  0  0  0  0
   -2.9672   -1.0660    0.0000 C   0  0  0  0  0  0  0  0  0  0  0  0
   -4.4344   -1.3779    0.0000 C   0  0  0  0  0  0  0  0  0  0  0  0
   -4.8980   -2.8045    0.0000 C   0  0  0  0  0  0  0  0  0  0  0  0
   -3.8943   -3.9192    0.0000 C   0  0  0  0  0  0  0  0  0  0  0  0
   -2.4271   -3.6073    0.0000 C   0  0  0  0  0  0  0  0  0  0  0  0
  1  2  1  0
  2  3  1  0
  3  4  2  0
  4  5  1  0
  5  6  1  0
  6  7  1  0
  7  8  1  0
  8  9  2  0
  8 10  1  0
 10 11  1  0
 11 12  2  0
 12 13  1  0
 13 14  2  0
 14 15  1  0
 15 16  1  0
 16 17  2  0
 17 18  1  0
 18 19  2  0
 19 20  1  0
 20 21  2  0
 20 22  1  0
 22 23  1  0
 23 24  2  0
 24 25  1  0
 25 26  2  0
 26 27  1  0
 27 28  2  0
 19 29  1  0
 29 30  2  0
  7 31  1  0
 31 32  2  0
 32 33  1  0
 33 34  2  0
 34 35  1  0
 35 36  2  0
 36 37  1  0
 37 38  2  0
 38 39  1  0
 39 40  2  0
 40 41  1  0
 41 42  2  0
 42  2  1  0
 15 11  1  0
 29 16  1  0
 36 31  1  0
 42 37  1  0
 28 23  1  0
M  END
>  <Title>  (285) 
idAAJAgen14

$$$$

     RDKit          2D

 41 46  0  0  0  0  0  0  0  0999 V2000
   -2.3737   -6.1885    0.0000 C   0  0  0  0  0  0  0  0  0  0  0  0
   -1.4095   -5.0395    0.0000 C   0  0  0  0  0  0  0  0  0  0  0  0
   -0.0000   -5.5525    0.0000 C   0  0  0  0  0  0  0  0  0  0  0  0
    1.4095   -5.0395    0.0000 C   0  0  0  0  0  0  0  0  0  0  0  0
    2.1595   -3.7404    0.0000 C   0  0  0  0  0  0  0  0  0  0  0  0
    1.8991   -2.2632    0.0000 C   0  0  0  0  0  0  0  0  0  0  0  0
    3.1981   -1.5132    0.0000 C   0  0  0  0  0  0  0  0  0  0  0  0
    3.1981   -0.0132    0.0000 O   0  0  0  0  0  0  0  0  0  0  0  0
    4.4971   -2.2632    0.0000 N   0  0  0  0  0  0  0  0  0  0  0  0
    5.7962   -1.5132    0.0000 C   0  0  0  0  0  0  0  0  0  0  0  0
    5.9530   -0.0214    0.0000 N   0  0  0  0  0  0  0  0  0  0  0  0
    7.4202    0.2904    0.0000 N   0  0  0  0  0  0  0  0  0  0  0  0
    8.1702   -1.0086    0.0000 N   0  0  0  0  0  0  0  0  0  0  0  0
    7.1665   -2.1233    0.0000 N   0  0  0  0  0  0  0  0  0  0  0  0
    7.4784   -3.5905    0.0000 N   0  0  0  0  0  0  0  0  0  0  0  0
    8.8487   -4.2007    0.0000 C   0  0  0  0  0  0  0  0  0  0  0  0
    8.6919   -5.6924    0.0000 C   0  0  0  0  0  0  0  0  0  0  0  0
    7.2247   -6.0043    0.0000 N   0  0  0  0  0  0  0  0  0  0  0  0
    6.6146   -7.3746    0.0000 C   0  0  0  0  0  0  0  0  0  0  0  0
    7.4962   -8.5881    0.0000 O   0  0  0  0  0  0  0  0  0  0  0  0
    5.1228   -7.5314    0.0000 N   0  0  0  0  0  0  0  0  0  0  0  0
    4.5127   -8.9017    0.0000 C   0  0  0  0  0  0  0  0  0  0  0  0
    3.0209   -9.0585    0.0000 N   0  0  0  0  0  0  0  0  0  0  0  0
    2.4108  -10.4288    0.0000 N   0  0  0  0  0  0  0  0  0  0  0  0
    3.2925  -11.6424    0.0000 N   0  0  0  0  0  0  0  0  0  0  0  0
    4.7843  -11.4856    0.0000 N   0  0  0  0  0  0  0  0  0  0  0  0
    5.3944  -10.1153    0.0000 N   0  0  0  0  0  0  0  0  0  0  0  0
    6.4747   -4.7053    0.0000 C   0  0  0  0  0  0  0  0  0  0  0  0
    4.9829   -4.5485    0.0000 O   0  0  0  0  0  0  0  0  0  0  0  0
    0.7500   -1.2990    0.0000 C   0  0  0  0  0  0  0  0  0  0  0  0
    1.5000    0.0000    0.0000 C   0  0  0  0  0  0  0  0  0  0  0  0
    0.7500    1.2990    0.0000 C   0  0  0  0  0  0  0  0  0  0  0  0
   -0.7500    1.2990    0.0000 C   0  0  0  0  0  0  0  0  0  0  0  0
   -1.5000    0.0000    0.0000 C   0  0  0  0  0  0  0  0  0  0  0  0
   -0.7500   -1.2990    0.0000 C   0  0  0  0  0  0  0  0  0  0  0  0
   -1.8991   -2.2632    0.0000 C   0  0  0  0  0  0  0  0  0  0  0  0
   -3.0481   -1.2990    0.0000 C   0  0  0  0  0  0  0  0  0  0  0  0
   -4.4577   -1.8121    0.0000 C   0  0  0  0  0  0  0  0  0  0  0  0
   -4.7181   -3.2893    0.0000 C   0  0  0  0  0  0  0  0  0  0  0  0
   -3.5691   -4.2535    0.0000 C   0  0  0  0  0  0  0  0  0  0  0  0
   -2.1595   -3.7404    0.0000 C   0  0  0  0  0  0  0  0  0  0  0  0
  1  2  1  0
  2  3  2  0
  3  4  1  0
  4  5  1  0
  5  6  1  0
  6  7  1  0
  7  8  2  0
  7  9  1  0
  9 10  1  0
 10 11  2  0
 11 12  1  0
 12 13  2  0
 13 14  1  0
 14 15  1  0
 15 16  1  0
 16 17  1  0
 17 18  1  0
 18 19  1  0
 19 20  2  0
 19 21  1  0
 21 22  1  0
 22 23  2  0
 23 24  1  0
 24 25  2  0
 25 26  1  0
 26 27  2  0
 18 28  1  0
 28 29  2  0
  6 30  1  0
 30 31  2  0
 31 32  1  0
 32 33  2  0
 33 34  1  0
 34 35  2  0
 35 36  1  0
 36 37  2  0
 37 38  1  0
 38 39  2  0
 39 40  1  0
 40 41  2  0
 41  2  1  0
 14 10  1  0
 28 15  1  0
 35 30  1  0
 41 36  1  0
 27 22  1  0
M  END
>  <Title>  (286) 
idAAJBgen14

$$$$

     RDKit          2D

 15 15  0  0  0  0  0  0  0  0999 V2000
   16.2760   -0.0000    0.0000 N   0  0  0  0  0  0  0  0  0  0  0  0
   14.7760   -0.0000    0.0000 C   0  0  0  0  0  0  0  0  0  0  0  0
   13.2760   -0.0000    0.0000 C   0  0  0  0  0  0  0  0  0  0  0  0
   11.7760   -0.0000    0.0000 C   0  0  0  0  0  0  0  0  0  0  0  0
   10.2760   -0.0000    0.0000 C   0  0  0  0  0  0  0  0  0  0  0  0
    8.7760   -0.0000    0.0000 C   0  0  0  0  0  0  0  0  0  0  0  0
    7.2760   -0.0000    0.0000 C   0  0  0  0  0  0  0  0  0  0  0  0
    5.7760   -0.0000    0.0000 C   0  0  0  0  0  0  0  0  0  0  0  0
    4.2760   -0.0000    0.0000 C   0  0  0  0  0  0  0  0  0  0  0  0
    2.7760    0.0000    0.0000 C   0  0  0  0  0  0  0  0  0  0  0  0
    1.2760    0.0000    0.0000 C   0  0  0  0  0  0  0  0  0  0  0  0
    0.3943    1.2135    0.0000 C   0  0  0  0  0  0  0  0  0  0  0  0
   -1.0323    0.7500    0.0000 C   0  0  0  0  0  0  0  0  0  0  0  0
   -1.0323   -0.7500    0.0000 C   0  0  0  0  0  0  0  0  0  0  0  0
    0.3943   -1.2135    0.0000 C   0  0  0  0  0  0  0  0  0  0  0  0
  1  2  3  0
  2  3  1  0
  3  4  3  0
  4  5  1  0
  5  6  3  0
  6  7  1  0
  7  8  3  0
  8  9  1  0
  9 10  3  0
 10 11  1  0
 11 12  2  0
 12 13  1  0
 13 14  2  0
 14 15  1  0
 15 11  1  0
M  END
>  <Title>  (287) 
idAAJCgen14

$$$$

     RDKit          2D

 10 10  0  0  0  0  0  0  0  0999 V2000
    3.0000    1.5000    0.0000 C   0  0  0  0  0  0  0  0  0  0  0  0
    3.0000    0.0000    0.0000 C   0  0  0  0  0  0  0  0  0  0  0  0
    3.0000   -1.5000    0.0000 C   0  0  0  0  0  0  0  0  0  0  0  0
    4.5000    0.0000    0.0000 O   0  0  0  0  0  0  0  0  0  0  0  0
    1.5000    0.0000    0.0000 C   0  0  0  0  0  0  0  0  0  0  0  0
    0.7500   -1.2990    0.0000 C   0  0  0  0  0  0  0  0  0  0  0  0
   -0.7500   -1.2990    0.0000 C   0  0  0  0  0  0  0  0  0  0  0  0
   -1.5000    0.0000    0.0000 C   0  0  0  0  0  0  0  0  0  0  0  0
   -0.7500    1.2990    0.0000 N   0  0  0  0  0  0  0  0  0  0  0  0
    0.7500    1.2990    0.0000 C   0  0  0  0  0  0  0  0  0  0  0  0
  1  2  1  0
  2  3  1  0
  2  4  1  0
  2  5  1  0
  5  6  2  0
  6  7  1  0
  7  8  2  0
  8  9  1  0
  9 10  2  0
 10  5  1  0
M  END
>  <Title>  (288) 
idAAJDgen14

$$$$

     RDKit          2D

  5  4  0  0  0  0  0  0  0  0999 V2000
    0.0000    0.0000    0.0000 C   0  0  0  0  0  0  0  0  0  0  0  0
    1.2990    0.7500    0.0000 N   0  0  0  0  0  0  0  0  0  0  0  0
    2.5981   -0.0000    0.0000 C   0  0  0  0  0  0  0  0  0  0  0  0
    2.5981   -1.5000    0.0000 O   0  0  0  0  0  0  0  0  0  0  0  0
    3.8971    0.7500    0.0000 O   0  0  0  0  0  0  0  0  0  0  0  0
  1  2  1  0
  2  3  1  0
  3  4  2  0
  3  5  1  0
M  END
>  <Title>  (289) 
idAAJEgen14

$$$$

     RDKit          2D

  7  6  0  0  0  0  0  0  0  0999 V2000
    0.0000    0.0000    0.0000 C   0  0  0  0  0  0  0  0  0  0  0  0
    1.2990    0.7500    0.0000 C   0  0  0  0  0  0  0  0  0  0  0  0
    2.5981   -0.0000    0.0000 C   0  0  0  0  0  0  0  0  0  0  0  0
    3.8971    0.7500    0.0000 C   0  0  0  0  0  0  0  0  0  0  0  0
    3.8971    2.2500    0.0000 O   0  0  0  0  0  0  0  0  0  0  0  0
    5.1962   -0.0000    0.0000 N   0  0  0  0  0  0  0  0  0  0  0  0
    6.4952    0.7500    0.0000 C   0  0  0  0  0  0  0  0  0  0  0  0
  1  2  1  0
  2  3  1  0
  3  4  1  0
  4  5  1  0
  4  6  1  0
  6  7  1  0
M  END
>  <Title>  (290) 
idAAJFgen14

$$$$

     RDKit          2D

  7  7  0  0  0  0  0  0  0  0999 V2000
    4.8107   -1.2990    0.0000 C   0  0  0  0  0  0  0  0  0  0  0  0
    3.3107   -1.2990    0.0000 C   0  0  0  0  0  0  0  0  0  0  0  0
    2.5607    0.0000    0.0000 C   0  0  0  0  0  0  0  0  0  0  0  0
    1.0607    0.0000    0.0000 N   0  0  0  0  0  0  0  0  0  0  0  0
   -0.0000   -1.0607    0.0000 C   0  0  0  0  0  0  0  0  0  0  0  0
   -1.0607    0.0000    0.0000 C   0  0  0  0  0  0  0  0  0  0  0  0
    0.0000    1.0607    0.0000 C   0  0  0  0  0  0  0  0  0  0  0  0
  1  2  1  0
  2  3  2  3
  3  4  1  0
  4  5  1  0
  5  6  2  0
  6  7  1  0
  7  4  1  0
M  END
>  <Title>  (291) 
idAAJGgen14

$$$$

     RDKit          2D

 34 38  0  0  0  0  0  0  0  0999 V2000
   -3.0000   -2.5981    0.0000 C   0  0  0  0  0  0  0  0  0  0  0  0
   -1.5000   -2.5981    0.0000 C   0  0  0  0  0  0  0  0  0  0  0  0
   -0.7500   -3.8971    0.0000 C   0  0  0  0  0  0  0  0  0  0  0  0
    0.7500   -3.8971    0.0000 C   0  0  0  0  0  0  0  0  0  0  0  0
    1.5000   -2.5981    0.0000 C   0  0  0  0  0  0  0  0  0  0  0  0
    3.0000   -2.5981    0.0000 C   0  0  0  0  0  0  0  0  0  0  0  0
    3.7500   -1.2990    0.0000 O   0  0  0  0  0  0  0  0  0  0  0  0
    3.7500   -3.8971    0.0000 N   0  0  0  0  0  0  0  0  0  0  0  0
    5.2500   -3.8971    0.0000 C   0  0  0  0  0  0  0  0  0  0  0  0
    6.1317   -2.6836    0.0000 N   0  0  0  0  0  0  0  0  0  0  0  0
    7.5583   -3.1471    0.0000 N   0  0  0  0  0  0  0  0  0  0  0  0
    7.5583   -4.6471    0.0000 N   0  0  0  0  0  0  0  0  0  0  0  0
    6.1317   -5.1106    0.0000 N   0  0  0  0  0  0  0  0  0  0  0  0
    5.6682   -6.5372    0.0000 C   0  0  0  0  0  0  0  0  0  0  0  0
    6.5498   -7.7508    0.0000 C   0  0  0  0  0  0  0  0  0  0  0  0
    5.6682   -8.9643    0.0000 C   0  0  0  0  0  0  0  0  0  0  0  0
    4.2416   -8.5008    0.0000 C   0  0  0  0  0  0  0  0  0  0  0  0
    3.0280   -9.3824    0.0000 C   0  0  0  0  0  0  0  0  0  0  0  0
    3.1848  -10.8742    0.0000 O   0  0  0  0  0  0  0  0  0  0  0  0
    1.6577   -8.7723    0.0000 N   0  0  0  0  0  0  0  0  0  0  0  0
    0.4442   -9.6540    0.0000 C   0  0  0  0  0  0  0  0  0  0  0  0
   -0.9261   -9.0439    0.0000 N   0  0  0  0  0  0  0  0  0  0  0  0
   -2.1396   -9.9256    0.0000 N   0  0  0  0  0  0  0  0  0  0  0  0
   -1.9829  -11.4174    0.0000 N   0  0  0  0  0  0  0  0  0  0  0  0
   -0.6125  -12.0275    0.0000 N   0  0  0  0  0  0  0  0  0  0  0  0
    0.6010  -11.1458    0.0000 N   0  0  0  0  0  0  0  0  0  0  0  0
    4.2416   -7.0008    0.0000 C   0  0  0  0  0  0  0  0  0  0  0  0
    3.0280   -6.1191    0.0000 O   0  0  0  0  0  0  0  0  0  0  0  0
    0.7500   -1.2990    0.0000 C   0  0  0  0  0  0  0  0  0  0  0  0
    1.5000    0.0000    0.0000 C   0  0  0  0  0  0  0  0  0  0  0  0
    0.7500    1.2990    0.0000 C   0  0  0  0  0  0  0  0  0  0  0  0
   -0.7500    1.2990    0.0000 C   0  0  0  0  0  0  0  0  0  0  0  0
   -1.5000    0.0000    0.0000 C   0  0  0  0  0  0  0  0  0  0  0  0
   -0.7500   -1.2990    0.0000 C   0  0  0  0  0  0  0  0  0  0  0  0
  1  2  1  0
  2  3  1  0
  3  4  1  0
  4  5  1  0
  5  6  1  0
  6  7  2  0
  6  8  1  0
  8  9  1  0
  9 10  2  0
 10 11  1  0
 11 12  2  0
 12 13  1  0
 13 14  1  0
 14 15  2  0
 15 16  1  0
 16 17  2  0
 17 18  1  0
 18 19  2  0
 18 20  1  0
 20 21  1  0
 21 22  2  0
 22 23  1  0
 23 24  2  0
 24 25  1  0
 25 26  2  0
 17 27  1  0
 27 28  2  0
  5 29  1  0
 29 30  2  0
 30 31  1  0
 31 32  2  0
 32 33  1  0
 33 34  2  0
 34  2  1  0
 13  9  1  0
 27 14  1  0
 34 29  1  0
 26 21  1  0
M  END
>  <Title>  (292) 
idAAJHgen14

$$$$

     RDKit          2D

 17 18  0  0  0  0  0  0  0  0999 V2000
    0.7500   -9.0933    0.0000 C   0  0  0  0  0  0  0  0  0  0  0  0
    1.5000   -7.7942    0.0000 C   0  0  0  0  0  0  0  0  0  0  0  0
    0.7500   -6.4952    0.0000 C   0  0  0  0  0  0  0  0  0  0  0  0
    1.5000   -5.1962    0.0000 C   0  0  0  0  0  0  0  0  0  0  0  0
    0.7500   -3.8971    0.0000 N   0  0  0  0  0  0  0  0  0  0  0  0
    1.5000   -2.5981    0.0000 C   0  0  0  0  0  0  0  0  0  0  0  0
    0.7500   -1.2990    0.0000 C   0  0  0  0  0  0  0  0  0  0  0  0
    1.5000    0.0000    0.0000 C   0  0  0  0  0  0  0  0  0  0  0  0
    0.7500    1.2990    0.0000 S   0  0  0  0  0  0  0  0  0  0  0  0
   -0.7500    1.2990    0.0000 C   0  0  0  0  0  0  0  0  0  0  0  0
   -1.5000    0.0000    0.0000 C   0  0  0  0  0  0  0  0  0  0  0  0
   -0.7500   -1.2990    0.0000 C   0  0  0  0  0  0  0  0  0  0  0  0
    3.0000   -5.1962    0.0000 N   0  0  0  0  0  0  0  0  0  0  0  0
    3.8817   -3.9826    0.0000 C   0  0  0  0  0  0  0  0  0  0  0  0
    5.3083   -4.4462    0.0000 C   0  0  0  0  0  0  0  0  0  0  0  0
    5.3083   -5.9462    0.0000 C   0  0  0  0  0  0  0  0  0  0  0  0
    3.8817   -6.4097    0.0000 C   0  0  0  0  0  0  0  0  0  0  0  0
  1  2  1  0
  2  3  1  0
  3  4  1  0
  4  5  1  0
  5  6  1  0
  6  7  1  0
  7  8  2  0
  8  9  1  0
  9 10  1  0
 10 11  1  0
 11 12  2  0
  4 13  1  0
 13 14  1  0
 14 15  2  0
 15 16  1  0
 16 17  2  0
 12  7  1  0
 17 13  1  0
M  END
>  <Title>  (293) 
idAAJIgen14

$$$$

     RDKit          2D

 23 25  0  0  0  0  0  0  0  0999 V2000
    3.2286   -0.0000    0.0000 C   0  0  0  0  0  0  0  0  0  0  0  0
    1.7286    0.0000    0.0000 C   0  0  0  0  0  0  0  0  0  0  0  0
    1.0777    1.3515    0.0000 C   0  0  0  0  0  0  0  0  0  0  0  0
   -0.3846    1.6852    0.0000 C   0  0  0  0  0  0  0  0  0  0  0  0
   -1.5574    0.7500    0.0000 C   0  0  0  0  0  0  0  0  0  0  0  0
   -1.5574   -0.7500    0.0000 C   0  0  0  0  0  0  0  0  0  0  0  0
   -2.9088   -1.4008    0.0000 C   0  0  0  0  0  0  0  0  0  0  0  0
   -3.0209   -2.8966    0.0000 O   0  0  0  0  0  0  0  0  0  0  0  0
   -4.1482   -0.5558    0.0000 N   0  0  0  0  0  0  0  0  0  0  0  0
   -5.4997   -1.2067    0.0000 C   0  0  0  0  0  0  0  0  0  0  0  0
   -5.7675   -2.6826    0.0000 N   0  0  0  0  0  0  0  0  0  0  0  0
   -7.2539   -2.8839    0.0000 N   0  0  0  0  0  0  0  0  0  0  0  0
   -7.9047   -1.5325    0.0000 N   0  0  0  0  0  0  0  0  0  0  0  0
   -6.8205   -0.4959    0.0000 N   0  0  0  0  0  0  0  0  0  0  0  0
   -7.0219    0.9906    0.0000 C   0  0  0  0  0  0  0  0  0  0  0  0
   -5.8353    1.9081    0.0000 C   0  0  0  0  0  0  0  0  0  0  0  0
   -6.0366    3.3946    0.0000 C   0  0  0  0  0  0  0  0  0  0  0  0
   -7.4246    3.9634    0.0000 C   0  0  0  0  0  0  0  0  0  0  0  0
   -7.6259    5.4498    0.0000 O   0  0  0  0  0  0  0  0  0  0  0  0
   -8.6112    3.0458    0.0000 C   0  0  0  0  0  0  0  0  0  0  0  0
   -8.4099    1.5594    0.0000 C   0  0  0  0  0  0  0  0  0  0  0  0
   -0.3846   -1.6852    0.0000 C   0  0  0  0  0  0  0  0  0  0  0  0
    1.0777   -1.3515    0.0000 C   0  0  0  0  0  0  0  0  0  0  0  0
  1  2  1  0
  2  3  1  0
  3  4  2  0
  4  5  1  0
  5  6  1  0
  6  7  1  0
  7  8  2  0
  7  9  1  0
  9 10  1  0
 10 11  2  0
 11 12  1  0
 12 13  2  0
 13 14  1  0
 14 15  1  0
 15 16  2  0
 16 17  1  0
 17 18  2  0
 18 19  1  0
 18 20  1  0
 20 21  2  0
  6 22  1  0
 22 23  2  0
 23  2  1  0
 14 10  1  0
 21 15  1  0
M  END
>  <Title>  (294) 
idAAJJgen14

$$$$

     RDKit          2D

 70 71  0  0  0  0  0  0  0  0999 V2000
    3.8095   -4.1707    0.0000 C   0  0  0  0  0  0  0  0  0  0  0  0
    4.5920   -4.3230    0.0000 C   0  0  0  0  0  0  0  0  0  0  0  0
    4.4045   -5.8112    0.0000 C   0  0  0  0  0  0  0  0  0  0  0  0
    4.4170   -7.3111    0.0000 C   0  0  0  0  0  0  0  0  0  0  0  0
    4.6293   -8.7960    0.0000 C   0  0  0  0  0  0  0  0  0  0  0  0
    5.0377  -10.2394    0.0000 C   0  0  0  0  0  0  0  0  0  0  0  0
    5.6348  -11.6154    0.0000 C   0  0  0  0  0  0  0  0  0  0  0  0
    6.4100  -12.8996    0.0000 C   0  0  0  0  0  0  0  0  0  0  0  0
    7.3494  -14.0690    0.0000 C   0  0  0  0  0  0  0  0  0  0  0  0
    8.4363  -15.1027    0.0000 C   0  0  0  0  0  0  0  0  0  0  0  0
    9.6513  -15.9824    0.0000 C   0  0  0  0  0  0  0  0  0  0  0  0
   10.9727  -16.6922    0.0000 C   0  0  0  0  0  0  0  0  0  0  0  0
   12.3770  -17.2196    0.0000 C   0  0  0  0  0  0  0  0  0  0  0  0
   13.8389  -17.5551    0.0000 C   0  0  0  0  0  0  0  0  0  0  0  0
   15.3326  -17.6928    0.0000 C   0  0  0  0  0  0  0  0  0  0  0  0
   16.8313  -17.6302    0.0000 C   0  0  0  0  0  0  0  0  0  0  0  0
   18.3083  -17.3683    0.0000 C   0  0  0  0  0  0  0  0  0  0  0  0
   19.7372  -16.9119    0.0000 C   0  0  0  0  0  0  0  0  0  0  0  0
   21.0925  -16.2692    0.0000 C   0  0  0  0  0  0  0  0  0  0  0  0
   22.3500  -15.4515    0.0000 C   0  0  0  0  0  0  0  0  0  0  0  0
   23.4874  -14.4736    0.0000 C   0  0  0  0  0  0  0  0  0  0  0  0
   24.4842  -13.3527    0.0000 C   0  0  0  0  0  0  0  0  0  0  0  0
   25.3228  -12.1090    0.0000 C   0  0  0  0  0  0  0  0  0  0  0  0
   25.9881  -10.7646    0.0000 C   0  0  0  0  0  0  0  0  0  0  0  0
   26.4683   -9.3436    0.0000 C   0  0  0  0  0  0  0  0  0  0  0  0
   26.7548   -7.8712    0.0000 C   0  0  0  0  0  0  0  0  0  0  0  0
   26.8424   -6.3737    0.0000 C   0  0  0  0  0  0  0  0  0  0  0  0
   26.7297   -4.8780    0.0000 C   0  0  0  0  0  0  0  0  0  0  0  0
   26.4187   -3.4106    0.0000 C   0  0  0  0  0  0  0  0  0  0  0  0
   25.9148   -1.9977    0.0000 C   0  0  0  0  0  0  0  0  0  0  0  0
   25.2272   -0.6647    0.0000 C   0  0  0  0  0  0  0  0  0  0  0  0
   24.3679    0.5649    0.0000 C   0  0  0  0  0  0  0  0  0  0  0  0
   23.3525    1.6689    0.0000 C   0  0  0  0  0  0  0  0  0  0  0  0
   22.1990    2.6277    0.0000 C   0  0  0  0  0  0  0  0  0  0  0  0
   20.9279    3.4243    0.0000 C   0  0  0  0  0  0  0  0  0  0  0  0
   19.5621    4.0443    0.0000 C   0  0  0  0  0  0  0  0  0  0  0  0
   18.1258    4.4767    0.0000 C   0  0  0  0  0  0  0  0  0  0  0  0
   16.6446    4.7138    0.0000 C   0  0  0  0  0  0  0  0  0  0  0  0
   15.1451    4.7514    0.0000 C   0  0  0  0  0  0  0  0  0  0  0  0
   13.6539    4.5888    0.0000 C   0  0  0  0  0  0  0  0  0  0  0  0
   12.1977    4.2289    0.0000 C   0  0  0  0  0  0  0  0  0  0  0  0
   10.8025    3.6781    0.0000 C   0  0  0  0  0  0  0  0  0  0  0  0
    9.4932    2.9463    0.0000 C   0  0  0  0  0  0  0  0  0  0  0  0
    8.2930    2.0465    0.0000 C   0  0  0  0  0  0  0  0  0  0  0  0
    7.2236    0.9947    0.0000 C   0  0  0  0  0  0  0  0  0  0  0  0
    6.3038   -0.1902    0.0000 C   0  0  0  0  0  0  0  0  0  0  0  0
    5.5502   -1.4872    0.0000 C   0  0  0  0  0  0  0  0  0  0  0  0
    5.0460   -0.0000    0.0000 C   0  0  0  0  0  0  0  0  0  0  0  0
    4.8740    1.3060    0.0000 C   0  0  0  0  0  0  0  0  0  0  0  0
    4.3699    2.5230    0.0000 C   0  0  0  0  0  0  0  0  0  0  0  0
    3.5680    3.5680    0.0000 C   0  0  0  0  0  0  0  0  0  0  0  0
    2.5230    4.3699    0.0000 C   0  0  0  0  0  0  0  0  0  0  0  0
    1.3060    4.8740    0.0000 C   0  0  0  0  0  0  0  0  0  0  0  0
    0.0000    5.0460    0.0000 C   0  0  0  0  0  0  0  0  0  0  0  0
   -1.3060    4.8740    0.0000 C   0  0  0  0  0  0  0  0  0  0  0  0
   -2.5230    4.3699    0.0000 C   0  0  0  0  0  0  0  0  0  0  0  0
   -3.5680    3.5680    0.0000 C   0  0  0  0  0  0  0  0  0  0  0  0
   -4.3699    2.5230    0.0000 C   0  0  0  0  0  0  0  0  0  0  0  0
   -4.8740    1.3060    0.0000 C   0  0  0  0  0  0  0  0  0  0  0  0
   -5.0460    0.0000    0.0000 C   0  0  0  0  0  0  0  0  0  0  0  0
   -4.8740   -1.3060    0.0000 C   0  0  0  0  0  0  0  0  0  0  0  0
   -4.3699   -2.5230    0.0000 C   0  0  0  0  0  0  0  0  0  0  0  0
   -3.5680   -3.5680    0.0000 C   0  0  0  0  0  0  0  0  0  0  0  0
   -2.5230   -4.3699    0.0000 C   0  0  0  0  0  0  0  0  0  0  0  0
   -1.3060   -4.8740    0.0000 C   0  0  0  0  0  0  0  0  0  0  0  0
   -0.0000   -5.0460    0.0000 C   0  0  0  0  0  0  0  0  0  0  0  0
    1.3060   -4.8740    0.0000 C   0  0  0  0  0  0  0  0  0  0  0  0
    2.5230   -4.3699    0.0000 C   0  0  0  0  0  0  0  0  0  0  0  0
    3.5680   -3.5680    0.0000 C   0  0  0  0  0  0  0  0  0  0  0  0
    4.9762   -2.8730    0.0000 C   0  0  0  0  0  0  0  0  0  0  0  0
  1  2  1  0
  2  3  1  0
  3  4  1  0
  4  5  1  0
  5  6  1  0
  6  7  1  0
  7  8  1  0
  8  9  1  0
  9 10  1  0
 10 11  1  0
 11 12  1  0
 12 13  1  0
 13 14  1  0
 14 15  1  0
 15 16  1  0
 16 17  1  0
 17 18  1  0
 18 19  1  0
 19 20  1  0
 20 21  1  0
 21 22  1  0
 22 23  1  0
 23 24  1  0
 24 25  1  0
 25 26  1  0
 26 27  1  0
 27 28  1  0
 28 29  1  0
 29 30  1  0
 30 31  1  0
 31 32  1  0
 32 33  1  0
 33 34  1  0
 34 35  1  0
 35 36  1  0
 36 37  1  0
 37 38  1  0
 38 39  1  0
 39 40  1  0
 40 41  1  0
 41 42  1  0
 42 43  1  0
 43 44  1  0
 44 45  1  0
 45 46  1  0
 46 47  1  0
 47 48  1  0
 48 49  1  0
 49 50  1  0
 50 51  1  0
 51 52  2  0
 52 53  1  0
 53 54  2  0
 54 55  1  0
 55 56  2  0
 56 57  1  0
 57 58  2  0
 58 59  1  0
 59 60  2  0
 60 61  1  0
 61 62  2  0
 62 63  1  0
 63 64  2  0
 64 65  1  0
 65 66  2  0
 66 67  1  0
 67 68  2  0
 68 69  1  0
 69 70  2  0
 70  2  1  0
 70 47  1  0
M  END
>  <Title>  (295) 
idAAJKgen14

$$$$

     RDKit          2D

110111  0  0  0  0  0  0  0  0999 V2000
    4.5920    4.1563    0.0000 C   0  0  0  0  0  0  0  0  0  0  0  0
    5.3669    4.3433    0.0000 C   0  0  0  0  0  0  0  0  0  0  0  0
    5.0697    5.8136    0.0000 C   0  0  0  0  0  0  0  0  0  0  0  0
    4.8832    7.3020    0.0000 C   0  0  0  0  0  0  0  0  0  0  0  0
    4.8084    8.8001    0.0000 C   0  0  0  0  0  0  0  0  0  0  0  0
    4.8458   10.2996    0.0000 C   0  0  0  0  0  0  0  0  0  0  0  0
    4.9952   11.7922    0.0000 C   0  0  0  0  0  0  0  0  0  0  0  0
    5.2556   13.2694    0.0000 C   0  0  0  0  0  0  0  0  0  0  0  0
    5.6258   14.7230    0.0000 C   0  0  0  0  0  0  0  0  0  0  0  0
    6.1035   16.1449    0.0000 C   0  0  0  0  0  0  0  0  0  0  0  0
    6.6861   17.5271    0.0000 C   0  0  0  0  0  0  0  0  0  0  0  0
    7.3705   18.8619    0.0000 C   0  0  0  0  0  0  0  0  0  0  0  0
    8.1526   20.1418    0.0000 C   0  0  0  0  0  0  0  0  0  0  0  0
    9.0282   21.3597    0.0000 C   0  0  0  0  0  0  0  0  0  0  0  0
    9.9924   22.5088    0.0000 C   0  0  0  0  0  0  0  0  0  0  0  0
   11.0398   23.5826    0.0000 C   0  0  0  0  0  0  0  0  0  0  0  0
   12.1644   24.5751    0.0000 C   0  0  0  0  0  0  0  0  0  0  0  0
   13.3601   25.4809    0.0000 C   0  0  0  0  0  0  0  0  0  0  0  0
   14.6202   26.2947    0.0000 C   0  0  0  0  0  0  0  0  0  0  0  0
   15.9375   27.0121    0.0000 C   0  0  0  0  0  0  0  0  0  0  0  0
   17.3048   27.6290    0.0000 C   0  0  0  0  0  0  0  0  0  0  0  0
   18.7143   28.1420    0.0000 C   0  0  0  0  0  0  0  0  0  0  0  0
   20.1582   28.5483    0.0000 C   0  0  0  0  0  0  0  0  0  0  0  0
   21.6285   28.8455    0.0000 C   0  0  0  0  0  0  0  0  0  0  0  0
   23.1169   29.0320    0.0000 C   0  0  0  0  0  0  0  0  0  0  0  0
   24.6150   29.1068    0.0000 C   0  0  0  0  0  0  0  0  0  0  0  0
   26.1145   29.0694    0.0000 C   0  0  0  0  0  0  0  0  0  0  0  0
   27.6071   28.9200    0.0000 C   0  0  0  0  0  0  0  0  0  0  0  0
   29.0843   28.6596    0.0000 C   0  0  0  0  0  0  0  0  0  0  0  0
   30.5379   28.2894    0.0000 C   0  0  0  0  0  0  0  0  0  0  0  0
   31.9598   27.8117    0.0000 C   0  0  0  0  0  0  0  0  0  0  0  0
   33.3420   27.2290    0.0000 C   0  0  0  0  0  0  0  0  0  0  0  0
   34.6768   26.5447    0.0000 C   0  0  0  0  0  0  0  0  0  0  0  0
   35.9568   25.7626    0.0000 C   0  0  0  0  0  0  0  0  0  0  0  0
   37.1747   24.8870    0.0000 C   0  0  0  0  0  0  0  0  0  0  0  0
   38.3237   23.9228    0.0000 C   0  0  0  0  0  0  0  0  0  0  0  0
   39.3975   22.8754    0.0000 C   0  0  0  0  0  0  0  0  0  0  0  0
   40.3901   21.7507    0.0000 C   0  0  0  0  0  0  0  0  0  0  0  0
   41.2958   20.5550    0.0000 C   0  0  0  0  0  0  0  0  0  0  0  0
   42.1096   19.2950    0.0000 C   0  0  0  0  0  0  0  0  0  0  0  0
   42.8270   17.9777    0.0000 C   0  0  0  0  0  0  0  0  0  0  0  0
   43.4439   16.6104    0.0000 C   0  0  0  0  0  0  0  0  0  0  0  0
   43.9569   15.2009    0.0000 C   0  0  0  0  0  0  0  0  0  0  0  0
   44.3632   13.7569    0.0000 C   0  0  0  0  0  0  0  0  0  0  0  0
   44.6604   12.2867    0.0000 C   0  0  0  0  0  0  0  0  0  0  0  0
   44.8469   10.7983    0.0000 C   0  0  0  0  0  0  0  0  0  0  0  0
   44.9217    9.3002    0.0000 C   0  0  0  0  0  0  0  0  0  0  0  0
   44.8843    7.8007    0.0000 C   0  0  0  0  0  0  0  0  0  0  0  0
   44.7349    6.3081    0.0000 C   0  0  0  0  0  0  0  0  0  0  0  0
   44.4745    4.8309    0.0000 C   0  0  0  0  0  0  0  0  0  0  0  0
   44.1043    3.3773    0.0000 C   0  0  0  0  0  0  0  0  0  0  0  0
   43.6266    1.9554    0.0000 C   0  0  0  0  0  0  0  0  0  0  0  0
   43.0440    0.5732    0.0000 C   0  0  0  0  0  0  0  0  0  0  0  0
   42.3596   -0.7616    0.0000 C   0  0  0  0  0  0  0  0  0  0  0  0
   41.5775   -2.0416    0.0000 C   0  0  0  0  0  0  0  0  0  0  0  0
   40.7019   -3.2595    0.0000 C   0  0  0  0  0  0  0  0  0  0  0  0
   39.7377   -4.4085    0.0000 C   0  0  0  0  0  0  0  0  0  0  0  0
   38.6903   -5.4823    0.0000 C   0  0  0  0  0  0  0  0  0  0  0  0
   37.5657   -6.4749    0.0000 C   0  0  0  0  0  0  0  0  0  0  0  0
   36.3700   -7.3806    0.0000 C   0  0  0  0  0  0  0  0  0  0  0  0
   35.1099   -8.1944    0.0000 C   0  0  0  0  0  0  0  0  0  0  0  0
   33.7926   -8.9118    0.0000 C   0  0  0  0  0  0  0  0  0  0  0  0
   32.4253   -9.5287    0.0000 C   0  0  0  0  0  0  0  0  0  0  0  0
   31.0158  -10.0417    0.0000 C   0  0  0  0  0  0  0  0  0  0  0  0
   29.5719  -10.4480    0.0000 C   0  0  0  0  0  0  0  0  0  0  0  0
   28.1016  -10.7452    0.0000 C   0  0  0  0  0  0  0  0  0  0  0  0
   26.6132  -10.9317    0.0000 C   0  0  0  0  0  0  0  0  0  0  0  0
   25.1151  -11.0065    0.0000 C   0  0  0  0  0  0  0  0  0  0  0  0
   23.6156  -10.9691    0.0000 C   0  0  0  0  0  0  0  0  0  0  0  0
   22.1230  -10.8198    0.0000 C   0  0  0  0  0  0  0  0  0  0  0  0
   20.6458  -10.5593    0.0000 C   0  0  0  0  0  0  0  0  0  0  0  0
   19.1922  -10.1891    0.0000 C   0  0  0  0  0  0  0  0  0  0  0  0
   17.7703   -9.7114    0.0000 C   0  0  0  0  0  0  0  0  0  0  0  0
   16.3881   -9.1288    0.0000 C   0  0  0  0  0  0  0  0  0  0  0  0
   15.0533   -8.4444    0.0000 C   0  0  0  0  0  0  0  0  0  0  0  0
   13.7733   -7.6623    0.0000 C   0  0  0  0  0  0  0  0  0  0  0  0
   12.5554   -6.7867    0.0000 C   0  0  0  0  0  0  0  0  0  0  0  0
   11.4064   -5.8225    0.0000 C   0  0  0  0  0  0  0  0  0  0  0  0
   10.3326   -4.7751    0.0000 C   0  0  0  0  0  0  0  0  0  0  0  0
    9.3400   -3.6505    0.0000 C   0  0  0  0  0  0  0  0  0  0  0  0
    8.4343   -2.4548    0.0000 C   0  0  0  0  0  0  0  0  0  0  0  0
    7.6205   -1.1947    0.0000 C   0  0  0  0  0  0  0  0  0  0  0  0
    6.9031    0.1226    0.0000 C   0  0  0  0  0  0  0  0  0  0  0  0
    6.2862    1.4899    0.0000 C   0  0  0  0  0  0  0  0  0  0  0  0
    5.7603   -0.0000    0.0000 C   0  0  0  0  0  0  0  0  0  0  0  0
    5.6051   -1.3284    0.0000 C   0  0  0  0  0  0  0  0  0  0  0  0
    5.1476   -2.5852    0.0000 C   0  0  0  0  0  0  0  0  0  0  0  0
    4.4127   -3.7027    0.0000 C   0  0  0  0  0  0  0  0  0  0  0  0
    3.4398   -4.6205    0.0000 C   0  0  0  0  0  0  0  0  0  0  0  0
    2.2816   -5.2892    0.0000 C   0  0  0  0  0  0  0  0  0  0  0  0
    1.0003   -5.6728    0.0000 C   0  0  0  0  0  0  0  0  0  0  0  0
   -0.3349   -5.7506    0.0000 C   0  0  0  0  0  0  0  0  0  0  0  0
   -1.6521   -5.5183    0.0000 C   0  0  0  0  0  0  0  0  0  0  0  0
   -2.8802   -4.9886    0.0000 C   0  0  0  0  0  0  0  0  0  0  0  0
   -3.9530   -4.1899    0.0000 C   0  0  0  0  0  0  0  0  0  0  0  0
   -4.8127   -3.1654    0.0000 C   0  0  0  0  0  0  0  0  0  0  0  0
   -5.4130   -1.9702    0.0000 C   0  0  0  0  0  0  0  0  0  0  0  0
   -5.7214   -0.6687    0.0000 C   0  0  0  0  0  0  0  0  0  0  0  0
   -5.7214    0.6687    0.0000 C   0  0  0  0  0  0  0  0  0  0  0  0
   -5.4130    1.9702    0.0000 C   0  0  0  0  0  0  0  0  0  0  0  0
   -4.8127    3.1654    0.0000 C   0  0  0  0  0  0  0  0  0  0  0  0
   -3.9530    4.1899    0.0000 C   0  0  0  0  0  0  0  0  0  0  0  0
   -2.8802    4.9886    0.0000 C   0  0  0  0  0  0  0  0  0  0  0  0
   -1.6521    5.5183    0.0000 C   0  0  0  0  0  0  0  0  0  0  0  0
   -0.3349    5.7506    0.0000 C   0  0  0  0  0  0  0  0  0  0  0  0
    1.0003    5.6728    0.0000 C   0  0  0  0  0  0  0  0  0  0  0  0
    2.2816    5.2892    0.0000 C   0  0  0  0  0  0  0  0  0  0  0  0
    3.4398    4.6205    0.0000 C   0  0  0  0  0  0  0  0  0  0  0  0
    4.4127    3.7027    0.0000 C   0  0  0  0  0  0  0  0  0  0  0  0
    5.7732    2.8994    0.0000 C   0  0  0  0  0  0  0  0  0  0  0  0
  1  2  1  0
  2  3  1  0
  3  4  1  0
  4  5  1  0
  5  6  1  0
  6  7  1  0
  7  8  1  0
  8  9  1  0
  9 10  1  0
 10 11  1  0
 11 12  1  0
 12 13  1  0
 13 14  1  0
 14 15  1  0
 15 16  1  0
 16 17  1  0
 17 18  1  0
 18 19  1  0
 19 20  1  0
 20 21  1  0
 21 22  1  0
 22 23  1  0
 23 24  1  0
 24 25  1  0
 25 26  1  0
 26 27  1  0
 27 28  1  0
 28 29  1  0
 29 30  1  0
 30 31  1  0
 31 32  1  0
 32 33  1  0
 33 34  1  0
 34 35  1  0
 35 36  1  0
 36 37  1  0
 37 38  1  0
 38 39  1  0
 39 40  1  0
 40 41  1  0
 41 42  1  0
 42 43  1  0
 43 44  1  0
 44 45  1  0
 45 46  1  0
 46 47  1  0
 47 48  1  0
 48 49  1  0
 49 50  1  0
 50 51  1  0
 51 52  1  0
 52 53  1  0
 53 54  1  0
 54 55  1  0
 55 56  1  0
 56 57  1  0
 57 58  1  0
 58 59  1  0
 59 60  1  0
 60 61  1  0
 61 62  1  0
 62 63  1  0
 63 64  1  0
 64 65  1  0
 65 66  1  0
 66 67  1  0
 67 68  1  0
 68 69  1  0
 69 70  1  0
 70 71  1  0
 71 72  1  0
 72 73  1  0
 73 74  1  0
 74 75  1  0
 75 76  1  0
 76 77  1  0
 77 78  1  0
 78 79  1  0
 79 80  1  0
 80 81  1  0
 81 82  1  0
 82 83  1  0
 83 84  1  0
 84 85  1  0
 85 86  1  0
 86 87  1  0
 87 88  2  0
 88 89  1  0
 89 90  2  0
 90 91  1  0
 91 92  2  0
 92 93  1  0
 93 94  2  0
 94 95  1  0
 95 96  2  0
 96 97  1  0
 97 98  2  0
 98 99  1  0
 99100  2  0
100101  1  0
101102  2  0
102103  1  0
103104  2  0
104105  1  0
105106  2  0
106107  1  0
107108  2  0
108109  1  0
109110  2  0
110  2  1  0
110 84  1  0
M  END
>  <Title>  (296) 
idAAJLgen14

$$$$

     RDKit          2D

 38 42  0  0  0  0  0  0  0  0999 V2000
   10.5000    5.1962    0.0000 C   0  0  0  0  0  0  0  0  0  0  0  0
    9.7500    3.8971    0.0000 C   0  0  0  0  0  0  0  0  0  0  0  0
   10.5000    2.5981    0.0000 O   0  0  0  0  0  0  0  0  0  0  0  0
    8.2500    3.8971    0.0000 C   0  0  0  0  0  0  0  0  0  0  0  0
    7.5000    2.5981    0.0000 C   0  0  0  0  0  0  0  0  0  0  0  0
    8.2500    1.2990    0.0000 C   0  0  0  0  0  0  0  0  0  0  0  0
    7.5000    0.0000    0.0000 C   0  0  0  0  0  0  0  0  0  0  0  0
    6.0000    0.0000    0.0000 C   0  0  0  0  0  0  0  0  0  0  0  0
    5.2500   -1.2990    0.0000 O   0  0  0  0  0  0  0  0  0  0  0  0
    6.0000   -2.5981    0.0000 C   0  0  0  0  0  0  0  0  0  0  0  0
    7.5000   -2.5981    0.0000 O   0  0  0  0  0  0  0  0  0  0  0  0
    5.2500   -3.8971    0.0000 N   0  0  0  0  0  0  0  0  0  0  0  0
    6.0000   -5.1962    0.0000 C   0  0  0  0  0  0  0  0  0  0  0  0
    7.4918   -5.3529    0.0000 N   0  0  0  0  0  0  0  0  0  0  0  0
    7.8037   -6.8202    0.0000 N   0  0  0  0  0  0  0  0  0  0  0  0
    6.5046   -7.5702    0.0000 N   0  0  0  0  0  0  0  0  0  0  0  0
    5.3899   -6.5665    0.0000 N   0  0  0  0  0  0  0  0  0  0  0  0
    3.9227   -6.8783    0.0000 N   0  0  0  0  0  0  0  0  0  0  0  0
    3.3126   -8.2487    0.0000 C   0  0  0  0  0  0  0  0  0  0  0  0
    1.8208   -8.0919    0.0000 C   0  0  0  0  0  0  0  0  0  0  0  0
    1.5089   -6.6246    0.0000 N   0  0  0  0  0  0  0  0  0  0  0  0
    0.1386   -6.0145    0.0000 C   0  0  0  0  0  0  0  0  0  0  0  0
   -0.0182   -4.5228    0.0000 O   0  0  0  0  0  0  0  0  0  0  0  0
   -1.0749   -6.8962    0.0000 N   0  0  0  0  0  0  0  0  0  0  0  0
   -0.9181   -8.3880    0.0000 C   0  0  0  0  0  0  0  0  0  0  0  0
   -2.1317   -9.2697    0.0000 N   0  0  0  0  0  0  0  0  0  0  0  0
   -1.9749  -10.7615    0.0000 N   0  0  0  0  0  0  0  0  0  0  0  0
   -0.6045  -11.3716    0.0000 N   0  0  0  0  0  0  0  0  0  0  0  0
    0.6090  -10.4899    0.0000 N   0  0  0  0  0  0  0  0  0  0  0  0
    0.4522   -8.9981    0.0000 N   0  0  0  0  0  0  0  0  0  0  0  0
    2.8080   -5.8746    0.0000 C   0  0  0  0  0  0  0  0  0  0  0  0
    2.9647   -4.3829    0.0000 O   0  0  0  0  0  0  0  0  0  0  0  0
    5.2500    1.2990    0.0000 C   0  0  0  0  0  0  0  0  0  0  0  0
    3.7500    1.2990    0.0000 C   0  0  0  0  0  0  0  0  0  0  0  0
    3.0000    2.5981    0.0000 C   0  0  0  0  0  0  0  0  0  0  0  0
    3.7500    3.8971    0.0000 C   0  0  0  0  0  0  0  0  0  0  0  0
    5.2500    3.8971    0.0000 C   0  0  0  0  0  0  0  0  0  0  0  0
    6.0000    2.5981    0.0000 C   0  0  0  0  0  0  0  0  0  0  0  0
  1  2  1  0
  2  3  2  0
  2  4  1  0
  4  5  1  0
  5  6  2  0
  6  7  1  0
  7  8  2  0
  8  9  1  0
  9 10  1  0
 10 11  2  0
 10 12  1  0
 12 13  1  0
 13 14  2  0
 14 15  1  0
 15 16  2  0
 16 17  1  0
 17 18  1  0
 18 19  1  0
 19 20  1  0
 20 21  1  0
 21 22  1  0
 22 23  2  0
 22 24  1  0
 24 25  1  0
 25 26  2  0
 26 27  1  0
 27 28  2  0
 28 29  1  0
 29 30  2  0
 21 31  1  0
 31 32  2  0
  8 33  1  0
 33 34  2  0
 34 35  1  0
 35 36  2  0
 36 37  1  0
 37 38  2  0
 38  5  1  0
 17 13  1  0
 31 18  1  0
 38 33  1  0
 30 25  1  0
M  END
>  <Title>  (297) 
idAAJMgen14

$$$$

     RDKit          2D

110111  0  0  0  0  0  0  0  0999 V2000
   13.1697   -4.5007    0.0000 C   0  0  0  0  0  0  0  0  0  0  0  0
   13.9665   -4.4786    0.0000 C   0  0  0  0  0  0  0  0  0  0  0  0
   14.1003   -5.9726    0.0000 C   0  0  0  0  0  0  0  0  0  0  0  0
   14.4167   -7.4389    0.0000 C   0  0  0  0  0  0  0  0  0  0  0  0
   14.9109   -8.8552    0.0000 C   0  0  0  0  0  0  0  0  0  0  0  0
   15.5754  -10.1999    0.0000 C   0  0  0  0  0  0  0  0  0  0  0  0
   16.4000  -11.4529    0.0000 C   0  0  0  0  0  0  0  0  0  0  0  0
   17.3725  -12.5950    0.0000 C   0  0  0  0  0  0  0  0  0  0  0  0
   18.4779  -13.6090    0.0000 C   0  0  0  0  0  0  0  0  0  0  0  0
   19.6995  -14.4794    0.0000 C   0  0  0  0  0  0  0  0  0  0  0  0
   21.0188  -15.1931    0.0000 C   0  0  0  0  0  0  0  0  0  0  0  0
   22.4158  -15.7393    0.0000 C   0  0  0  0  0  0  0  0  0  0  0  0
   23.8694  -16.1096    0.0000 C   0  0  0  0  0  0  0  0  0  0  0  0
   25.3575  -16.2985    0.0000 C   0  0  0  0  0  0  0  0  0  0  0  0
   26.8574  -16.3031    0.0000 C   0  0  0  0  0  0  0  0  0  0  0  0
   28.3466  -16.1234    0.0000 C   0  0  0  0  0  0  0  0  0  0  0  0
   29.8025  -15.7620    0.0000 C   0  0  0  0  0  0  0  0  0  0  0  0
   31.2028  -15.2245    0.0000 C   0  0  0  0  0  0  0  0  0  0  0  0
   32.5265  -14.5189    0.0000 C   0  0  0  0  0  0  0  0  0  0  0  0
   33.7535  -13.6560    0.0000 C   0  0  0  0  0  0  0  0  0  0  0  0
   34.8651  -12.6489    0.0000 C   0  0  0  0  0  0  0  0  0  0  0  0
   35.8445  -11.5128    0.0000 C   0  0  0  0  0  0  0  0  0  0  0  0
   36.6769  -10.2649    0.0000 C   0  0  0  0  0  0  0  0  0  0  0  0
   37.3497   -8.9243    0.0000 C   0  0  0  0  0  0  0  0  0  0  0  0
   37.8526   -7.5111    0.0000 C   0  0  0  0  0  0  0  0  0  0  0  0
   38.1780   -6.0468    0.0000 C   0  0  0  0  0  0  0  0  0  0  0  0
   38.3210   -4.5536    0.0000 C   0  0  0  0  0  0  0  0  0  0  0  0
   38.2794   -3.0542    0.0000 C   0  0  0  0  0  0  0  0  0  0  0  0
   38.0539   -1.5713    0.0000 C   0  0  0  0  0  0  0  0  0  0  0  0
   37.6478   -0.1273    0.0000 C   0  0  0  0  0  0  0  0  0  0  0  0
   37.0674    1.2559    0.0000 C   0  0  0  0  0  0  0  0  0  0  0  0
   36.3214    2.5572    0.0000 C   0  0  0  0  0  0  0  0  0  0  0  0
   35.4211    3.7570    0.0000 C   0  0  0  0  0  0  0  0  0  0  0  0
   34.3803    4.8371    0.0000 C   0  0  0  0  0  0  0  0  0  0  0  0
   33.2145    5.7811    0.0000 C   0  0  0  0  0  0  0  0  0  0  0  0
   31.9417    6.5747    0.0000 C   0  0  0  0  0  0  0  0  0  0  0  0
   30.5809    7.2058    0.0000 C   0  0  0  0  0  0  0  0  0  0  0  0
   29.1529    7.6649    0.0000 C   0  0  0  0  0  0  0  0  0  0  0  0
   27.6793    7.9451    0.0000 C   0  0  0  0  0  0  0  0  0  0  0  0
   26.1824    8.0421    0.0000 C   0  0  0  0  0  0  0  0  0  0  0  0
   24.6850    7.9543    0.0000 C   0  0  0  0  0  0  0  0  0  0  0  0
   23.2097    7.6832    0.0000 C   0  0  0  0  0  0  0  0  0  0  0  0
   21.7789    7.2329    0.0000 C   0  0  0  0  0  0  0  0  0  0  0  0
   20.4143    6.6102    0.0000 C   0  0  0  0  0  0  0  0  0  0  0  0
   19.1365    5.8245    0.0000 C   0  0  0  0  0  0  0  0  0  0  0  0
   17.9650    4.8877    0.0000 C   0  0  0  0  0  0  0  0  0  0  0  0
   16.9175    3.8140    0.0000 C   0  0  0  0  0  0  0  0  0  0  0  0
   16.0099    2.6198    0.0000 C   0  0  0  0  0  0  0  0  0  0  0  0
   15.2559    1.3231    0.0000 C   0  0  0  0  0  0  0  0  0  0  0  0
   14.6669   -0.0565    0.0000 C   0  0  0  0  0  0  0  0  0  0  0  0
   14.2520   -1.4979    0.0000 C   0  0  0  0  0  0  0  0  0  0  0  0
   13.6305   -0.0000    0.0000 C   0  0  0  0  0  0  0  0  0  0  0  0
   13.5558    1.4248    0.0000 C   0  0  0  0  0  0  0  0  0  0  0  0
   13.3326    2.8339    0.0000 C   0  0  0  0  0  0  0  0  0  0  0  0
   12.9634    4.2121    0.0000 C   0  0  0  0  0  0  0  0  0  0  0  0
   12.4521    5.5440    0.0000 C   0  0  0  0  0  0  0  0  0  0  0  0
   11.8044    6.8152    0.0000 C   0  0  0  0  0  0  0  0  0  0  0  0
   11.0273    8.0118    0.0000 C   0  0  0  0  0  0  0  0  0  0  0  0
   10.1294    9.1206    0.0000 C   0  0  0  0  0  0  0  0  0  0  0  0
    9.1206   10.1294    0.0000 C   0  0  0  0  0  0  0  0  0  0  0  0
    8.0118   11.0273    0.0000 C   0  0  0  0  0  0  0  0  0  0  0  0
    6.8152   11.8044    0.0000 C   0  0  0  0  0  0  0  0  0  0  0  0
    5.5440   12.4521    0.0000 C   0  0  0  0  0  0  0  0  0  0  0  0
    4.2121   12.9634    0.0000 C   0  0  0  0  0  0  0  0  0  0  0  0
    2.8339   13.3326    0.0000 C   0  0  0  0  0  0  0  0  0  0  0  0
    1.4248   13.5558    0.0000 C   0  0  0  0  0  0  0  0  0  0  0  0
    0.0000   13.6305    0.0000 C   0  0  0  0  0  0  0  0  0  0  0  0
   -1.4248   13.5558    0.0000 C   0  0  0  0  0  0  0  0  0  0  0  0
   -2.8339   13.3326    0.0000 C   0  0  0  0  0  0  0  0  0  0  0  0
   -4.2121   12.9634    0.0000 C   0  0  0  0  0  0  0  0  0  0  0  0
   -5.5440   12.4521    0.0000 C   0  0  0  0  0  0  0  0  0  0  0  0
   -6.8152   11.8044    0.0000 C   0  0  0  0  0  0  0  0  0  0  0  0
   -8.0118   11.0273    0.0000 C   0  0  0  0  0  0  0  0  0  0  0  0
   -9.1206   10.1294    0.0000 C   0  0  0  0  0  0  0  0  0  0  0  0
  -10.1294    9.1206    0.0000 C   0  0  0  0  0  0  0  0  0  0  0  0
  -11.0273    8.0118    0.0000 C   0  0  0  0  0  0  0  0  0  0  0  0
  -11.8044    6.8152    0.0000 C   0  0  0  0  0  0  0  0  0  0  0  0
  -12.4521    5.5440    0.0000 C   0  0  0  0  0  0  0  0  0  0  0  0
  -12.9634    4.2121    0.0000 C   0  0  0  0  0  0  0  0  0  0  0  0
  -13.3326    2.8339    0.0000 C   0  0  0  0  0  0  0  0  0  0  0  0
  -13.5558    1.4248    0.0000 C   0  0  0  0  0  0  0  0  0  0  0  0
  -13.6305    0.0000    0.0000 C   0  0  0  0  0  0  0  0  0  0  0  0
  -13.5558   -1.4248    0.0000 C   0  0  0  0  0  0  0  0  0  0  0  0
  -13.3326   -2.8339    0.0000 C   0  0  0  0  0  0  0  0  0  0  0  0
  -12.9634   -4.2121    0.0000 C   0  0  0  0  0  0  0  0  0  0  0  0
  -12.4521   -5.5440    0.0000 C   0  0  0  0  0  0  0  0  0  0  0  0
  -11.8044   -6.8152    0.0000 C   0  0  0  0  0  0  0  0  0  0  0  0
  -11.0273   -8.0118    0.0000 C   0  0  0  0  0  0  0  0  0  0  0  0
  -10.1294   -9.1206    0.0000 C   0  0  0  0  0  0  0  0  0  0  0  0
   -9.1206  -10.1294    0.0000 C   0  0  0  0  0  0  0  0  0  0  0  0
   -8.0118  -11.0273    0.0000 C   0  0  0  0  0  0  0  0  0  0  0  0
   -6.8152  -11.8044    0.0000 C   0  0  0  0  0  0  0  0  0  0  0  0
   -5.5440  -12.4521    0.0000 C   0  0  0  0  0  0  0  0  0  0  0  0
   -4.2121  -12.9634    0.0000 C   0  0  0  0  0  0  0  0  0  0  0  0
   -2.8339  -13.3326    0.0000 C   0  0  0  0  0  0  0  0  0  0  0  0
   -1.4248  -13.5558    0.0000 C   0  0  0  0  0  0  0  0  0  0  0  0
   -0.0000  -13.6305    0.0000 C   0  0  0  0  0  0  0  0  0  0  0  0
    1.4248  -13.5558    0.0000 C   0  0  0  0  0  0  0  0  0  0  0  0
    2.8339  -13.3326    0.0000 C   0  0  0  0  0  0  0  0  0  0  0  0
    4.2121  -12.9634    0.0000 C   0  0  0  0  0  0  0  0  0  0  0  0
    5.5440  -12.4521    0.0000 C   0  0  0  0  0  0  0  0  0  0  0  0
    6.8152  -11.8044    0.0000 C   0  0  0  0  0  0  0  0  0  0  0  0
    8.0118  -11.0273    0.0000 C   0  0  0  0  0  0  0  0  0  0  0  0
    9.1206  -10.1294    0.0000 C   0  0  0  0  0  0  0  0  0  0  0  0
   10.1294   -9.1206    0.0000 C   0  0  0  0  0  0  0  0  0  0  0  0
   11.0273   -8.0118    0.0000 C   0  0  0  0  0  0  0  0  0  0  0  0
   11.8044   -6.8152    0.0000 C   0  0  0  0  0  0  0  0  0  0  0  0
   12.4521   -5.5440    0.0000 C   0  0  0  0  0  0  0  0  0  0  0  0
   12.9634   -4.2121    0.0000 C   0  0  0  0  0  0  0  0  0  0  0  0
   14.0173   -2.9795    0.0000 C   0  0  0  0  0  0  0  0  0  0  0  0
  1  2  1  0
  2  3  1  0
  3  4  1  0
  4  5  1  0
  5  6  1  0
  6  7  1  0
  7  8  1  0
  8  9  1  0
  9 10  1  0
 10 11  1  0
 11 12  1  0
 12 13  1  0
 13 14  1  0
 14 15  1  0
 15 16  1  0
 16 17  1  0
 17 18  1  0
 18 19  1  0
 19 20  1  0
 20 21  1  0
 21 22  1  0
 22 23  1  0
 23 24  1  0
 24 25  1  0
 25 26  1  0
 26 27  1  0
 27 28  1  0
 28 29  1  0
 29 30  1  0
 30 31  1  0
 31 32  1  0
 32 33  1  0
 33 34  1  0
 34 35  1  0
 35 36  1  0
 36 37  1  0
 37 38  1  0
 38 39  1  0
 39 40  1  0
 40 41  1  0
 41 42  1  0
 42 43  1  0
 43 44  1  0
 44 45  1  0
 45 46  1  0
 46 47  1  0
 47 48  1  0
 48 49  1  0
 49 50  1  0
 50 51  1  0
 51 52  1  0
 52 53  1  0
 53 54  1  0
 54 55  1  0
 55 56  1  0
 56 57  1  0
 57 58  1  0
 58 59  1  0
 59 60  1  0
 60 61  1  0
 61 62  1  0
 62 63  1  0
 63 64  1  0
 64 65  1  0
 65 66  1  0
 66 67  1  0
 67 68  1  0
 68 69  1  0
 69 70  1  0
 70 71  1  0
 71 72  1  0
 72 73  1  0
 73 74  1  0
 74 75  1  0
 75 76  1  0
 76 77  1  0
 77 78  1  0
 78 79  1  0
 79 80  1  0
 80 81  1  0
 81 82  1  0
 82 83  1  0
 83 84  1  0
 84 85  1  0
 85 86  1  0
 86 87  1  0
 87 88  1  0
 88 89  1  0
 89 90  1  0
 90 91  1  0
 91 92  1  0
 92 93  1  0
 93 94  1  0
 94 95  1  0
 95 96  1  0
 96 97  1  0
 97 98  1  0
 98 99  1  0
 99100  1  0
100101  1  0
101102  1  0
102103  1  0
103104  1  0
104105  1  0
105106  2  0
106107  1  0
107108  2  0
108109  1  0
109110  2  0
110  2  1  0
110 51  1  0
M  END
>  <Title>  (298) 
idAAJNgen14

$$$$

     RDKit          2D

 35 39  0  0  0  0  0  0  0  0999 V2000
   -3.1476   -2.1380    0.0000 C   0  0  0  0  0  0  0  0  0  0  0  0
   -1.6852   -2.4718    0.0000 C   0  0  0  0  0  0  0  0  0  0  0  0
   -1.3515   -3.9342    0.0000 C   0  0  0  0  0  0  0  0  0  0  0  0
   -0.0000   -4.5850    0.0000 N   0  0  0  0  0  0  0  0  0  0  0  0
    1.3515   -3.9342    0.0000 C   0  0  0  0  0  0  0  0  0  0  0  0
    1.6852   -2.4718    0.0000 C   0  0  0  0  0  0  0  0  0  0  0  0
    3.1476   -2.1380    0.0000 C   0  0  0  0  0  0  0  0  0  0  0  0
    3.5898   -0.7046    0.0000 O   0  0  0  0  0  0  0  0  0  0  0  0
    4.1679   -3.2376    0.0000 N   0  0  0  0  0  0  0  0  0  0  0  0
    5.6303   -2.9038    0.0000 C   0  0  0  0  0  0  0  0  0  0  0  0
    6.2198   -1.5245    0.0000 N   0  0  0  0  0  0  0  0  0  0  0  0
    7.7138   -1.6590    0.0000 N   0  0  0  0  0  0  0  0  0  0  0  0
    8.0476   -3.1214    0.0000 N   0  0  0  0  0  0  0  0  0  0  0  0
    6.7599   -3.8907    0.0000 N   0  0  0  0  0  0  0  0  0  0  0  0
    6.6254   -5.3847    0.0000 N   0  0  0  0  0  0  0  0  0  0  0  0
    7.7550   -6.3716    0.0000 C   0  0  0  0  0  0  0  0  0  0  0  0
    7.1655   -7.7509    0.0000 C   0  0  0  0  0  0  0  0  0  0  0  0
    5.6715   -7.6164    0.0000 N   0  0  0  0  0  0  0  0  0  0  0  0
    4.6846   -8.7460    0.0000 C   0  0  0  0  0  0  0  0  0  0  0  0
    5.1694  -10.1655    0.0000 O   0  0  0  0  0  0  0  0  0  0  0  0
    3.2129   -8.4561    0.0000 N   0  0  0  0  0  0  0  0  0  0  0  0
    2.2260   -9.5857    0.0000 C   0  0  0  0  0  0  0  0  0  0  0  0
    0.7543   -9.2959    0.0000 N   0  0  0  0  0  0  0  0  0  0  0  0
   -0.2326  -10.4255    0.0000 N   0  0  0  0  0  0  0  0  0  0  0  0
    0.2522  -11.8450    0.0000 N   0  0  0  0  0  0  0  0  0  0  0  0
    1.7239  -12.1348    0.0000 N   0  0  0  0  0  0  0  0  0  0  0  0
    2.7108  -11.0052    0.0000 N   0  0  0  0  0  0  0  0  0  0  0  0
    5.3378   -6.1540    0.0000 C   0  0  0  0  0  0  0  0  0  0  0  0
    3.9585   -5.5645    0.0000 O   0  0  0  0  0  0  0  0  0  0  0  0
    0.7500   -1.2990    0.0000 C   0  0  0  0  0  0  0  0  0  0  0  0
    1.5000    0.0000    0.0000 C   0  0  0  0  0  0  0  0  0  0  0  0
    0.7500    1.2990    0.0000 C   0  0  0  0  0  0  0  0  0  0  0  0
   -0.7500    1.2990    0.0000 C   0  0  0  0  0  0  0  0  0  0  0  0
   -1.5000    0.0000    0.0000 C   0  0  0  0  0  0  0  0  0  0  0  0
   -0.7500   -1.2990    0.0000 C   0  0  0  0  0  0  0  0  0  0  0  0
  1  2  1  0
  2  3  1  0
  3  4  1  0
  4  5  1  0
  5  6  1  0
  6  7  1  0
  7  8  2  0
  7  9  1  0
  9 10  1  0
 10 11  2  0
 11 12  1  0
 12 13  2  0
 13 14  1  0
 14 15  1  0
 15 16  1  0
 16 17  1  0
 17 18  1  0
 18 19  1  0
 19 20  2  0
 19 21  1  0
 21 22  1  0
 22 23  2  0
 23 24  1  0
 24 25  2  0
 25 26  1  0
 26 27  2  0
 18 28  1  0
 28 29  2  0
  6 30  1  0
 30 31  2  0
 31 32  1  0
 32 33  2  0
 33 34  1  0
 34 35  2  0
 35  2  1  0
 14 10  1  0
 28 15  1  0
 35 30  1  0
 27 22  1  0
M  END
>  <Title>  (299) 
idAAJOgen14

$$$$

     RDKit          2D

 13 12  0  0  0  0  0  0  0  0999 V2000
    0.0000    0.0000    0.0000 C   0  0  0  0  0  0  0  0  0  0  0  0
    1.2990    0.7500    0.0000 C   0  0  0  0  0  0  0  0  0  0  0  0
    2.5981   -0.0000    0.0000 C   0  0  0  0  0  0  0  0  0  0  0  0
    3.8971    0.7500    0.0000 C   0  0  0  0  0  0  0  0  0  0  0  0
    5.1962   -0.0000    0.0000 C   0  0  0  0  0  0  0  0  0  0  0  0
    6.4952    0.7500    0.0000 N   0  0  0  0  0  0  0  0  0  0  0  0
    7.7942   -0.0000    0.0000 C   0  0  0  0  0  0  0  0  0  0  0  0
    5.1962   -1.5000    0.0000 N   0  0  0  0  0  0  0  0  0  0  0  0
    6.4952   -2.2500    0.0000 C   0  0  0  0  0  0  0  0  0  0  0  0
    7.7942   -1.5000    0.0000 O   0  0  0  0  0  0  0  0  0  0  0  0
    6.4952   -3.7500    0.0000 C   0  0  0  0  0  0  0  0  0  0  0  0
    7.7942   -4.5000    0.0000 C   0  0  0  0  0  0  0  0  0  0  0  0
    7.7942   -6.0000    0.0000 C   0  0  0  0  0  0  0  0  0  0  0  0
  1  2  2  0
  2  3  1  0
  3  4  1  0
  4  5  1  0
  5  6  1  0
  6  7  1  0
  5  8  1  0
  8  9  1  0
  9 10  2  0
  9 11  1  0
 11 12  1  0
 12 13  1  0
M  END
>  <Title>  (300) 
idAAJPgen14

$$$$

     RDKit          2D

105104  0  0  0  0  0  0  0  0999 V2000
    0.0000    0.0000    0.0000 C   0  0  0  0  0  0  0  0  0  0  0  0
    1.2990    0.7500    0.0000 C   0  0  0  0  0  0  0  0  0  0  0  0
    2.5981   -0.0000    0.0000 C   0  0  0  0  0  0  0  0  0  0  0  0
    3.8971    0.7500    0.0000 C   0  0  0  0  0  0  0  0  0  0  0  0
    5.1962   -0.0000    0.0000 C   0  0  0  0  0  0  0  0  0  0  0  0
    6.4952    0.7500    0.0000 C   0  0  0  0  0  0  0  0  0  0  0  0
    7.7942   -0.0000    0.0000 C   0  0  0  0  0  0  0  0  0  0  0  0
    9.0933    0.7500    0.0000 C   0  0  0  0  0  0  0  0  0  0  0  0
   10.3923   -0.0000    0.0000 C   0  0  0  0  0  0  0  0  0  0  0  0
   11.6913    0.7500    0.0000 C   0  0  0  0  0  0  0  0  0  0  0  0
   12.9904   -0.0000    0.0000 C   0  0  0  0  0  0  0  0  0  0  0  0
   14.2894    0.7500    0.0000 C   0  0  0  0  0  0  0  0  0  0  0  0
   15.5885   -0.0000    0.0000 C   0  0  0  0  0  0  0  0  0  0  0  0
   16.8875    0.7500    0.0000 C   0  0  0  0  0  0  0  0  0  0  0  0
   18.1865   -0.0000    0.0000 C   0  0  0  0  0  0  0  0  0  0  0  0
   19.4856    0.7500    0.0000 C   0  0  0  0  0  0  0  0  0  0  0  0
   20.7846   -0.0000    0.0000 C   0  0  0  0  0  0  0  0  0  0  0  0
   22.0836    0.7500    0.0000 C   0  0  0  0  0  0  0  0  0  0  0  0
   23.3827   -0.0000    0.0000 C   0  0  0  0  0  0  0  0  0  0  0  0
   24.6817    0.7500    0.0000 C   0  0  0  0  0  0  0  0  0  0  0  0
   25.9808   -0.0000    0.0000 C   0  0  0  0  0  0  0  0  0  0  0  0
   27.2798    0.7500    0.0000 C   0  0  0  0  0  0  0  0  0  0  0  0
   28.5788   -0.0000    0.0000 C   0  0  0  0  0  0  0  0  0  0  0  0
   29.8779    0.7500    0.0000 C   0  0  0  0  0  0  0  0  0  0  0  0
   31.1769   -0.0000    0.0000 C   0  0  0  0  0  0  0  0  0  0  0  0
   32.4760    0.7500    0.0000 C   0  0  0  0  0  0  0  0  0  0  0  0
   33.7750   -0.0000    0.0000 C   0  0  0  0  0  0  0  0  0  0  0  0
   35.0740    0.7500    0.0000 C   0  0  0  0  0  0  0  0  0  0  0  0
   36.3731   -0.0000    0.0000 C   0  0  0  0  0  0  0  0  0  0  0  0
   37.6721    0.7500    0.0000 C   0  0  0  0  0  0  0  0  0  0  0  0
   38.9711   -0.0000    0.0000 C   0  0  0  0  0  0  0  0  0  0  0  0
   40.2702    0.7500    0.0000 C   0  0  0  0  0  0  0  0  0  0  0  0
   41.5692   -0.0000    0.0000 C   0  0  0  0  0  0  0  0  0  0  0  0
   42.8683    0.7500    0.0000 C   0  0  0  0  0  0  0  0  0  0  0  0
   44.1673   -0.0000    0.0000 C   0  0  0  0  0  0  0  0  0  0  0  0
   45.4663    0.7500    0.0000 C   0  0  0  0  0  0  0  0  0  0  0  0
   46.7654   -0.0000    0.0000 C   0  0  0  0  0  0  0  0  0  0  0  0
   48.0644    0.7500    0.0000 C   0  0  0  0  0  0  0  0  0  0  0  0
   49.3634   -0.0000    0.0000 C   0  0  0  0  0  0  0  0  0  0  0  0
   50.6625    0.7500    0.0000 C   0  0  0  0  0  0  0  0  0  0  0  0
   51.9615   -0.0000    0.0000 C   0  0  0  0  0  0  0  0  0  0  0  0
   53.2606    0.7500    0.0000 C   0  0  0  0  0  0  0  0  0  0  0  0
   54.5596   -0.0000    0.0000 C   0  0  0  0  0  0  0  0  0  0  0  0
   55.8586    0.7500    0.0000 C   0  0  0  0  0  0  0  0  0  0  0  0
   57.1577   -0.0000    0.0000 C   0  0  0  0  0  0  0  0  0  0  0  0
   58.4567    0.7500    0.0000 C   0  0  0  0  0  0  0  0  0  0  0  0
   59.7558   -0.0000    0.0000 C   0  0  0  0  0  0  0  0  0  0  0  0
   61.0548    0.7500    0.0000 C   0  0  0  0  0  0  0  0  0  0  0  0
   62.3538   -0.0000    0.0000 C   0  0  0  0  0  0  0  0  0  0  0  0
   63.6529    0.7500    0.0000 C   0  0  0  0  0  0  0  0  0  0  0  0
   64.9519   -0.0000    0.0000 C   0  0  0  0  0  0  0  0  0  0  0  0
   66.2509    0.7500    0.0000 C   0  0  0  0  0  0  0  0  0  0  0  0
   67.5500   -0.0000    0.0000 C   0  0  0  0  0  0  0  0  0  0  0  0
   68.8490    0.7500    0.0000 C   0  0  0  0  0  0  0  0  0  0  0  0
   70.1481   -0.0000    0.0000 C   0  0  0  0  0  0  0  0  0  0  0  0
   71.4471    0.7500    0.0000 C   0  0  0  0  0  0  0  0  0  0  0  0
   72.7461   -0.0000    0.0000 C   0  0  0  0  0  0  0  0  0  0  0  0
   74.0452    0.7500    0.0000 C   0  0  0  0  0  0  0  0  0  0  0  0
   75.3442   -0.0000    0.0000 C   0  0  0  0  0  0  0  0  0  0  0  0
   76.6432    0.7500    0.0000 C   0  0  0  0  0  0  0  0  0  0  0  0
   77.9423   -0.0000    0.0000 C   0  0  0  0  0  0  0  0  0  0  0  0
   79.2413    0.7500    0.0000 C   0  0  0  0  0  0  0  0  0  0  0  0
   80.5404   -0.0000    0.0000 C   0  0  0  0  0  0  0  0  0  0  0  0
   81.8394    0.7500    0.0000 C   0  0  0  0  0  0  0  0  0  0  0  0
   83.1384   -0.0000    0.0000 C   0  0  0  0  0  0  0  0  0  0  0  0
   84.4375    0.7500    0.0000 C   0  0  0  0  0  0  0  0  0  0  0  0
   85.7365   -0.0000    0.0000 C   0  0  0  0  0  0  0  0  0  0  0  0
   87.0356    0.7500    0.0000 C   0  0  0  0  0  0  0  0  0  0  0  0
   88.3346   -0.0000    0.0000 C   0  0  0  0  0  0  0  0  0  0  0  0
   89.6336    0.7500    0.0000 C   0  0  0  0  0  0  0  0  0  0  0  0
   90.9327   -0.0000    0.0000 C   0  0  0  0  0  0  0  0  0  0  0  0
   92.2317    0.7500    0.0000 C   0  0  0  0  0  0  0  0  0  0  0  0
   93.5307   -0.0000    0.0000 C   0  0  0  0  0  0  0  0  0  0  0  0
   94.8298    0.7500    0.0000 C   0  0  0  0  0  0  0  0  0  0  0  0
   96.1288   -0.0000    0.0000 C   0  0  0  0  0  0  0  0  0  0  0  0
   97.4279    0.7500    0.0000 C   0  0  0  0  0  0  0  0  0  0  0  0
   98.7269   -0.0000    0.0000 C   0  0  0  0  0  0  0  0  0  0  0  0
  100.0259    0.7500    0.0000 C   0  0  0  0  0  0  0  0  0  0  0  0
  101.3250   -0.0000    0.0000 C   0  0  0  0  0  0  0  0  0  0  0  0
  102.6240    0.7500    0.0000 C   0  0  0  0  0  0  0  0  0  0  0  0
  103.9230   -0.0000    0.0000 C   0  0  0  0  0  0  0  0  0  0  0  0
  105.2221    0.7500    0.0000 C   0  0  0  0  0  0  0  0  0  0  0  0
  106.5211   -0.0000    0.0000 C   0  0  0  0  0  0  0  0  0  0  0  0
  107.8202    0.7500    0.0000 C   0  0  0  0  0  0  0  0  0  0  0  0
  109.1192   -0.0000    0.0000 C   0  0  0  0  0  0  0  0  0  0  0  0
  110.4182    0.7500    0.0000 C   0  0  0  0  0  0  0  0  0  0  0  0
  111.7173   -0.0000    0.0000 C   0  0  0  0  0  0  0  0  0  0  0  0
  113.0163    0.7500    0.0000 C   0  0  0  0  0  0  0  0  0  0  0  0
  114.3154   -0.0000    0.0000 C   0  0  0  0  0  0  0  0  0  0  0  0
  115.6144    0.7500    0.0000 C   0  0  0  0  0  0  0  0  0  0  0  0
  116.9134   -0.0000    0.0000 C   0  0  0  0  0  0  0  0  0  0  0  0
  118.2125    0.7500    0.0000 C   0  0  0  0  0  0  0  0  0  0  0  0
  119.5115   -0.0000    0.0000 C   0  0  0  0  0  0  0  0  0  0  0  0
  120.8105    0.7500    0.0000 C   0  0  0  0  0  0  0  0  0  0  0  0
  122.1096   -0.0000    0.0000 C   0  0  0  0  0  0  0  0  0  0  0  0
  123.4086    0.7500    0.0000 C   0  0  0  0  0  0  0  0  0  0  0  0
  124.7077   -0.0000    0.0000 C   0  0  0  0  0  0  0  0  0  0  0  0
  126.0067    0.7500    0.0000 C   0  0  0  0  0  0  0  0  0  0  0  0
  127.3057   -0.0000    0.0000 C   0  0  0  0  0  0  0  0  0  0  0  0
  128.6048    0.7500    0.0000 C   0  0  0  0  0  0  0  0  0  0  0  0
  129.9038   -0.0000    0.0000 C   0  0  0  0  0  0  0  0  0  0  0  0
  131.2028    0.7500    0.0000 C   0  0  0  0  0  0  0  0  0  0  0  0
  132.5019   -0.0000    0.0000 C   0  0  0  0  0  0  0  0  0  0  0  0
  133.8009    0.7500    0.0000 C   0  0  0  0  0  0  0  0  0  0  0  0
  135.1000   -0.0000    0.0000 C   0  0  0  0  0  0  0  0  0  0  0  0
  1  2  2  0
  2  3  1  0
  3  4  2  3
  4  5  1  0
  5  6  2  3
  6  7  1  0
  7  8  2  3
  8  9  1  0
  9 10  2  3
 10 11  1  0
 11 12  2  3
 12 13  1  0
 13 14  2  3
 14 15  1  0
 15 16  2  3
 16 17  1  0
 17 18  2  3
 18 19  1  0
 19 20  2  3
 20 21  1  0
 21 22  2  3
 22 23  1  0
 23 24  2  3
 24 25  1  0
 25 26  2  3
 26 27  1  0
 27 28  2  3
 28 29  1  0
 29 30  2  3
 30 31  1  0
 31 32  2  3
 32 33  1  0
 33 34  2  3
 34 35  1  0
 35 36  2  3
 36 37  1  0
 37 38  2  3
 38 39  1  0
 39 40  2  3
 40 41  1  0
 41 42  2  3
 42 43  1  0
 43 44  2  3
 44 45  1  0
 45 46  2  3
 46 47  1  0
 47 48  1  0
 48 49  1  0
 49 50  1  0
 50 51  1  0
 51 52  1  0
 52 53  1  0
 53 54  1  0
 54 55  1  0
 55 56  1  0
 56 57  1  0
 57 58  1  0
 58 59  1  0
 59 60  1  0
 60 61  1  0
 61 62  1  0
 62 63  1  0
 63 64  1  0
 64 65  1  0
 65 66  1  0
 66 67  1  0
 67 68  1  0
 68 69  1  0
 69 70  1  0
 70 71  1  0
 71 72  1  0
 72 73  1  0
 73 74  1  0
 74 75  1  0
 75 76  1  0
 76 77  1  0
 77 78  1  0
 78 79  1  0
 79 80  1  0
 80 81  1  0
 81 82  1  0
 82 83  1  0
 83 84  1  0
 84 85  1  0
 85 86  1  0
 86 87  1  0
 87 88  1  0
 88 89  1  0
 89 90  1  0
 90 91  1  0
 91 92  1  0
 92 93  1  0
 93 94  1  0
 94 95  1  0
 95 96  1  0
 96 97  1  0
 97 98  1  0
 98 99  1  0
 99100  1  0
100101  1  0
101102  1  0
102103  1  0
103104  1  0
104105  1  0
M  END
>  <Title>  (301) 
idAAJQgen14

$$$$

     RDKit          2D

 10  9  0  0  0  0  0  0  0  0999 V2000
    0.0000    0.0000    0.0000 C   0  0  0  0  0  0  0  0  0  0  0  0
    1.2990    0.7500    0.0000 C   0  0  0  0  0  0  0  0  0  0  0  0
    2.5981   -0.0000    0.0000 C   0  0  0  0  0  0  0  0  0  0  0  0
    3.8971    0.7500    0.0000 C   0  0  0  0  0  0  0  0  0  0  0  0
    5.1962   -0.0000    0.0000 C   0  0  0  0  0  0  0  0  0  0  0  0
    6.4952    0.7500    0.0000 C   0  0  0  0  0  0  0  0  0  0  0  0
    5.1962   -1.5000    0.0000 N   0  0  0  0  0  0  0  0  0  0  0  0
    6.4952   -2.2500    0.0000 C   0  0  0  0  0  0  0  0  0  0  0  0
    6.4952   -3.7500    0.0000 C   0  0  0  0  0  0  0  0  0  0  0  0
    7.7942   -1.5000    0.0000 O   0  0  0  0  0  0  0  0  0  0  0  0
  1  2  2  0
  2  3  1  0
  3  4  1  0
  4  5  1  0
  5  6  1  0
  5  7  1  0
  7  8  1  0
  8  9  1  0
  8 10  2  0
M  END
>  <Title>  (302) 
idAAJRgen14

$$$$

     RDKit          2D

 14 14  0  0  0  0  0  0  0  0999 V2000
    9.7500   -3.8971    0.0000 O   0  0  0  0  0  0  0  0  0  0  0  0
    8.2500   -3.8971    0.0000 C   0  0  0  0  0  0  0  0  0  0  0  0
    7.5000   -2.5981    0.0000 C   0  0  0  0  0  0  0  0  0  0  0  0
    6.0000   -2.5981    0.0000 C   0  0  0  0  0  0  0  0  0  0  0  0
    5.2500   -1.2990    0.0000 C   0  0  0  0  0  0  0  0  0  0  0  0
    6.0000    0.0000    0.0000 O   0  0  0  0  0  0  0  0  0  0  0  0
    3.7500   -1.2990    0.0000 N   0  0  0  0  0  0  0  0  0  0  0  0
    3.0000    0.0000    0.0000 C   0  0  0  0  0  0  0  0  0  0  0  0
    1.5000    0.0000    0.0000 C   0  0  0  0  0  0  0  0  0  0  0  0
    0.7500   -1.2990    0.0000 C   0  0  0  0  0  0  0  0  0  0  0  0
   -0.7500   -1.2990    0.0000 C   0  0  0  0  0  0  0  0  0  0  0  0
   -1.5000    0.0000    0.0000 C   0  0  0  0  0  0  0  0  0  0  0  0
   -0.7500    1.2990    0.0000 C   0  0  0  0  0  0  0  0  0  0  0  0
    0.7500    1.2990    0.0000 C   0  0  0  0  0  0  0  0  0  0  0  0
  1  2  2  0
  2  3  1  0
  3  4  1  0
  4  5  1  0
  5  6  2  0
  5  7  1  0
  7  8  1  0
  8  9  1  0
  9 10  2  0
 10 11  1  0
 11 12  2  0
 12 13  1  0
 13 14  2  0
 14  9  1  0
M  END
>  <Title>  (303) 
idAAJSgen14

$$$$

     RDKit          2D

  7  6  0  0  0  0  0  0  0  0999 V2000
    0.0000    0.0000    0.0000 C   0  0  0  0  0  0  0  0  0  0  0  0
    1.2990    0.7500    0.0000 N   0  0  0  0  0  0  0  0  0  0  0  0
    2.5981   -0.0000    0.0000 C   0  0  0  0  0  0  0  0  0  0  0  0
    3.8971    0.7500    0.0000 N   0  0  0  0  0  0  0  0  0  0  0  0
    5.1962   -0.0000    0.0000 C   0  0  0  0  0  0  0  0  0  0  0  0
    6.4952    0.7500    0.0000 C   0  0  0  0  0  0  0  0  0  0  0  0
    7.7942    1.5000    0.0000 N   0  0  0  0  0  0  0  0  0  0  0  0
  1  2  1  0
  2  3  2  3
  3  4  1  0
  4  5  1  0
  5  6  1  0
  6  7  3  0
M  END
>  <Title>  (304) 
idAAJTgen14

$$$$

     RDKit          2D

 92 93  0  0  0  0  0  0  0  0999 V2000
    7.8581    4.3863    0.0000 C   0  0  0  0  0  0  0  0  0  0  0  0
    8.6535    4.4398    0.0000 C   0  0  0  0  0  0  0  0  0  0  0  0
    8.6401    5.9397    0.0000 C   0  0  0  0  0  0  0  0  0  0  0  0
    8.8009    7.4311    0.0000 C   0  0  0  0  0  0  0  0  0  0  0  0
    9.1337    8.8937    0.0000 C   0  0  0  0  0  0  0  0  0  0  0  0
    9.6341   10.3078    0.0000 C   0  0  0  0  0  0  0  0  0  0  0  0
   10.2953   11.6542    0.0000 C   0  0  0  0  0  0  0  0  0  0  0  0
   11.1083   12.9147    0.0000 C   0  0  0  0  0  0  0  0  0  0  0  0
   12.0622   14.0724    0.0000 C   0  0  0  0  0  0  0  0  0  0  0  0
   13.1440   15.1115    0.0000 C   0  0  0  0  0  0  0  0  0  0  0  0
   14.3391   16.0180    0.0000 C   0  0  0  0  0  0  0  0  0  0  0  0
   15.6314   16.7795    0.0000 C   0  0  0  0  0  0  0  0  0  0  0  0
   17.0033   17.3860    0.0000 C   0  0  0  0  0  0  0  0  0  0  0  0
   18.4364   17.8290    0.0000 C   0  0  0  0  0  0  0  0  0  0  0  0
   19.9112   18.1027    0.0000 C   0  0  0  0  0  0  0  0  0  0  0  0
   21.4078   18.2033    0.0000 C   0  0  0  0  0  0  0  0  0  0  0  0
   22.9060   18.1295    0.0000 C   0  0  0  0  0  0  0  0  0  0  0  0
   24.3855   17.8823    0.0000 C   0  0  0  0  0  0  0  0  0  0  0  0
   25.8263   17.4649    0.0000 C   0  0  0  0  0  0  0  0  0  0  0  0
   27.2089   16.8832    0.0000 C   0  0  0  0  0  0  0  0  0  0  0  0
   28.5146   16.1448    0.0000 C   0  0  0  0  0  0  0  0  0  0  0  0
   29.7257   15.2599    0.0000 C   0  0  0  0  0  0  0  0  0  0  0  0
   30.8259   14.2403    0.0000 C   0  0  0  0  0  0  0  0  0  0  0  0
   31.8004   13.1000    0.0000 C   0  0  0  0  0  0  0  0  0  0  0  0
   32.6358   11.8541    0.0000 C   0  0  0  0  0  0  0  0  0  0  0  0
   33.3210   10.5198    0.0000 C   0  0  0  0  0  0  0  0  0  0  0  0
   33.8466    9.1149    0.0000 C   0  0  0  0  0  0  0  0  0  0  0  0
   34.2056    7.6585    0.0000 C   0  0  0  0  0  0  0  0  0  0  0  0
   34.3930    6.1702    0.0000 C   0  0  0  0  0  0  0  0  0  0  0  0
   34.4065    4.6703    0.0000 C   0  0  0  0  0  0  0  0  0  0  0  0
   34.2457    3.1789    0.0000 C   0  0  0  0  0  0  0  0  0  0  0  0
   33.9128    1.7163    0.0000 C   0  0  0  0  0  0  0  0  0  0  0  0
   33.4124    0.3023    0.0000 C   0  0  0  0  0  0  0  0  0  0  0  0
   32.7513   -1.0442    0.0000 C   0  0  0  0  0  0  0  0  0  0  0  0
   31.9382   -2.3047    0.0000 C   0  0  0  0  0  0  0  0  0  0  0  0
   30.9844   -3.4624    0.0000 C   0  0  0  0  0  0  0  0  0  0  0  0
   29.9026   -4.5015    0.0000 C   0  0  0  0  0  0  0  0  0  0  0  0
   28.7075   -5.4079    0.0000 C   0  0  0  0  0  0  0  0  0  0  0  0
   27.4152   -6.1695    0.0000 C   0  0  0  0  0  0  0  0  0  0  0  0
   26.0432   -6.7759    0.0000 C   0  0  0  0  0  0  0  0  0  0  0  0
   24.6102   -7.2190    0.0000 C   0  0  0  0  0  0  0  0  0  0  0  0
   23.1353   -7.4927    0.0000 C   0  0  0  0  0  0  0  0  0  0  0  0
   21.6387   -7.5933    0.0000 C   0  0  0  0  0  0  0  0  0  0  0  0
   20.1405   -7.5195    0.0000 C   0  0  0  0  0  0  0  0  0  0  0  0
   18.6611   -7.2722    0.0000 C   0  0  0  0  0  0  0  0  0  0  0  0
   17.2203   -6.8549    0.0000 C   0  0  0  0  0  0  0  0  0  0  0  0
   15.8377   -6.2732    0.0000 C   0  0  0  0  0  0  0  0  0  0  0  0
   14.5320   -5.5348    0.0000 C   0  0  0  0  0  0  0  0  0  0  0  0
   13.3208   -4.6499    0.0000 C   0  0  0  0  0  0  0  0  0  0  0  0
   12.2206   -3.6303    0.0000 C   0  0  0  0  0  0  0  0  0  0  0  0
   11.2462   -2.4899    0.0000 C   0  0  0  0  0  0  0  0  0  0  0  0
   10.4107   -1.2441    0.0000 C   0  0  0  0  0  0  0  0  0  0  0  0
    9.7256    0.0902    0.0000 C   0  0  0  0  0  0  0  0  0  0  0  0
    9.1999    1.4951    0.0000 C   0  0  0  0  0  0  0  0  0  0  0  0
    8.6206   -0.0000    0.0000 C   0  0  0  0  0  0  0  0  0  0  0  0
    8.5090   -1.3828    0.0000 C   0  0  0  0  0  0  0  0  0  0  0  0
    8.1770   -2.7299    0.0000 C   0  0  0  0  0  0  0  0  0  0  0  0
    7.6332   -4.0062    0.0000 C   0  0  0  0  0  0  0  0  0  0  0  0
    6.8917   -5.1788    0.0000 C   0  0  0  0  0  0  0  0  0  0  0  0
    5.9717   -6.2172    0.0000 C   0  0  0  0  0  0  0  0  0  0  0  0
    4.8971   -7.0946    0.0000 C   0  0  0  0  0  0  0  0  0  0  0  0
    3.6956   -7.7883    0.0000 C   0  0  0  0  0  0  0  0  0  0  0  0
    2.3984   -8.2803    0.0000 C   0  0  0  0  0  0  0  0  0  0  0  0
    1.0391   -8.5578    0.0000 C   0  0  0  0  0  0  0  0  0  0  0  0
   -0.3471   -8.6136    0.0000 C   0  0  0  0  0  0  0  0  0  0  0  0
   -1.7243   -8.4464    0.0000 C   0  0  0  0  0  0  0  0  0  0  0  0
   -3.0569   -8.0604    0.0000 C   0  0  0  0  0  0  0  0  0  0  0  0
   -4.3103   -7.4657    0.0000 C   0  0  0  0  0  0  0  0  0  0  0  0
   -5.4521   -6.6776    0.0000 C   0  0  0  0  0  0  0  0  0  0  0  0
   -6.4526   -5.7165    0.0000 C   0  0  0  0  0  0  0  0  0  0  0  0
   -7.2861   -4.6074    0.0000 C   0  0  0  0  0  0  0  0  0  0  0  0
   -7.9308   -3.3790    0.0000 C   0  0  0  0  0  0  0  0  0  0  0  0
   -8.3701   -2.0631    0.0000 C   0  0  0  0  0  0  0  0  0  0  0  0
   -8.5927   -0.6937    0.0000 C   0  0  0  0  0  0  0  0  0  0  0  0
   -8.5927    0.6937    0.0000 C   0  0  0  0  0  0  0  0  0  0  0  0
   -8.3701    2.0631    0.0000 C   0  0  0  0  0  0  0  0  0  0  0  0
   -7.9308    3.3790    0.0000 C   0  0  0  0  0  0  0  0  0  0  0  0
   -7.2861    4.6074    0.0000 C   0  0  0  0  0  0  0  0  0  0  0  0
   -6.4526    5.7165    0.0000 C   0  0  0  0  0  0  0  0  0  0  0  0
   -5.4521    6.6776    0.0000 C   0  0  0  0  0  0  0  0  0  0  0  0
   -4.3103    7.4657    0.0000 C   0  0  0  0  0  0  0  0  0  0  0  0
   -3.0569    8.0604    0.0000 C   0  0  0  0  0  0  0  0  0  0  0  0
   -1.7243    8.4464    0.0000 C   0  0  0  0  0  0  0  0  0  0  0  0
   -0.3471    8.6136    0.0000 C   0  0  0  0  0  0  0  0  0  0  0  0
    1.0391    8.5578    0.0000 C   0  0  0  0  0  0  0  0  0  0  0  0
    2.3984    8.2803    0.0000 C   0  0  0  0  0  0  0  0  0  0  0  0
    3.6956    7.7883    0.0000 C   0  0  0  0  0  0  0  0  0  0  0  0
    4.8971    7.0946    0.0000 C   0  0  0  0  0  0  0  0  0  0  0  0
    5.9717    6.2172    0.0000 C   0  0  0  0  0  0  0  0  0  0  0  0
    6.8917    5.1788    0.0000 C   0  0  0  0  0  0  0  0  0  0  0  0
    7.6332    4.0062    0.0000 C   0  0  0  0  0  0  0  0  0  0  0  0
    8.8410    2.9515    0.0000 C   0  0  0  0  0  0  0  0  0  0  0  0
  1  2  1  0
  2  3  1  0
  3  4  1  0
  4  5  1  0
  5  6  1  0
  6  7  1  0
  7  8  1  0
  8  9  1  0
  9 10  1  0
 10 11  1  0
 11 12  1  0
 12 13  1  0
 13 14  1  0
 14 15  1  0
 15 16  1  0
 16 17  1  0
 17 18  1  0
 18 19  1  0
 19 20  1  0
 20 21  1  0
 21 22  1  0
 22 23  1  0
 23 24  1  0
 24 25  1  0
 25 26  1  0
 26 27  1  0
 27 28  1  0
 28 29  1  0
 29 30  1  0
 30 31  1  0
 31 32  1  0
 32 33  1  0
 33 34  1  0
 34 35  1  0
 35 36  1  0
 36 37  1  0
 37 38  1  0
 38 39  1  0
 39 40  1  0
 40 41  1  0
 41 42  1  0
 42 43  1  0
 43 44  1  0
 44 45  1  0
 45 46  1  0
 46 47  1  0
 47 48  1  0
 48 49  1  0
 49 50  1  0
 50 51  1  0
 51 52  1  0
 52 53  1  0
 53 54  1  0
 54 55  1  0
 55 56  1  0
 56 57  1  0
 57 58  1  0
 58 59  1  0
 59 60  1  0
 60 61  1  0
 61 62  1  0
 62 63  1  0
 63 64  1  0
 64 65  1  0
 65 66  1  0
 66 67  1  0
 67 68  2  0
 68 69  1  0
 69 70  2  0
 70 71  1  0
 71 72  2  0
 72 73  1  0
 73 74  2  0
 74 75  1  0
 75 76  2  0
 76 77  1  0
 77 78  2  0
 78 79  1  0
 79 80  2  0
 80 81  1  0
 81 82  2  0
 82 83  1  0
 83 84  2  0
 84 85  1  0
 85 86  2  0
 86 87  1  0
 87 88  2  0
 88 89  1  0
 89 90  2  0
 90 91  1  0
 91 92  2  0
 92  2  1  0
 92 54  1  0
M  END
>  <Title>  (305) 
idAAJUgen14

$$$$

     RDKit          2D

  8  8  0  0  0  0  0  0  0  0999 V2000
    5.0260   -1.2990    0.0000 C   0  0  0  0  0  0  0  0  0  0  0  0
    3.5260   -1.2990    0.0000 C   0  0  0  0  0  0  0  0  0  0  0  0
    2.7760    0.0000    0.0000 C   0  0  0  0  0  0  0  0  0  0  0  0
    1.2760    0.0000    0.0000 C   0  0  0  0  0  0  0  0  0  0  0  0
    0.3943    1.2135    0.0000 C   0  0  0  0  0  0  0  0  0  0  0  0
   -1.0323    0.7500    0.0000 C   0  0  0  0  0  0  0  0  0  0  0  0
   -1.0323   -0.7500    0.0000 C   0  0  0  0  0  0  0  0  0  0  0  0
    0.3943   -1.2135    0.0000 C   0  0  0  0  0  0  0  0  0  0  0  0
  1  2  2  0
  2  3  1  0
  3  4  1  0
  4  5  2  0
  5  6  1  0
  6  7  1  0
  7  8  2  0
  8  4  1  0
M  END
>  <Title>  (306) 
idAAJVgen14

$$$$

     RDKit          2D

  8  8  0  0  0  0  0  0  0  0999 V2000
    5.0260   -1.2990    0.0000 C   0  0  0  0  0  0  0  0  0  0  0  0
    3.5260   -1.2990    0.0000 C   0  0  0  0  0  0  0  0  0  0  0  0
    2.7760    0.0000    0.0000 C   0  0  0  0  0  0  0  0  0  0  0  0
    1.2760    0.0000    0.0000 C   0  0  0  0  0  0  0  0  0  0  0  0
    0.3943    1.2135    0.0000 C   0  0  0  0  0  0  0  0  0  0  0  0
   -1.0323    0.7500    0.0000 C   0  0  0  0  0  0  0  0  0  0  0  0
   -1.0323   -0.7500    0.0000 C   0  0  0  0  0  0  0  0  0  0  0  0
    0.3943   -1.2135    0.0000 N   0  0  0  0  0  0  0  0  0  0  0  0
  1  2  1  0
  2  3  1  0
  3  4  1  0
  4  5  2  0
  5  6  1  0
  6  7  2  0
  7  8  1  0
  8  4  1  0
M  END
>  <Title>  (307) 
idAAJWgen14

$$$$

     RDKit          2D

 44 49  0  0  0  0  0  0  0  0999 V2000
   -3.1771   -5.9156    0.0000 C   0  0  0  0  0  0  0  0  0  0  0  0
   -1.9635   -5.0339    0.0000 C   0  0  0  0  0  0  0  0  0  0  0  0
   -0.7500   -5.9156    0.0000 C   0  0  0  0  0  0  0  0  0  0  0  0
    0.7500   -5.9156    0.0000 C   0  0  0  0  0  0  0  0  0  0  0  0
    1.9635   -5.0339    0.0000 C   0  0  0  0  0  0  0  0  0  0  0  0
    3.1771   -5.9156    0.0000 C   0  0  0  0  0  0  0  0  0  0  0  0
    4.5474   -5.3055    0.0000 O   0  0  0  0  0  0  0  0  0  0  0  0
    3.0203   -7.4073    0.0000 N   0  0  0  0  0  0  0  0  0  0  0  0
    4.2338   -8.2890    0.0000 C   0  0  0  0  0  0  0  0  0  0  0  0
    5.6604   -7.8255    0.0000 N   0  0  0  0  0  0  0  0  0  0  0  0
    6.5420   -9.0390    0.0000 N   0  0  0  0  0  0  0  0  0  0  0  0
    5.6604  -10.2525    0.0000 N   0  0  0  0  0  0  0  0  0  0  0  0
    4.2338   -9.7890    0.0000 N   0  0  0  0  0  0  0  0  0  0  0  0
    3.0203  -10.6707    0.0000 C   0  0  0  0  0  0  0  0  0  0  0  0
    3.0203  -12.1707    0.0000 C   0  0  0  0  0  0  0  0  0  0  0  0
    1.5937  -12.6342    0.0000 C   0  0  0  0  0  0  0  0  0  0  0  0
    0.7120  -11.4207    0.0000 C   0  0  0  0  0  0  0  0  0  0  0  0
   -0.7880  -11.4207    0.0000 O   0  0  0  0  0  0  0  0  0  0  0  0
   -1.5380  -10.1217    0.0000 C   0  0  0  0  0  0  0  0  0  0  0  0
   -0.7880   -8.8226    0.0000 O   0  0  0  0  0  0  0  0  0  0  0  0
   -3.0380  -10.1217    0.0000 N   0  0  0  0  0  0  0  0  0  0  0  0
   -3.7880  -11.4207    0.0000 C   0  0  0  0  0  0  0  0  0  0  0  0
   -5.2880  -11.4207    0.0000 N   0  0  0  0  0  0  0  0  0  0  0  0
   -6.0380  -12.7197    0.0000 N   0  0  0  0  0  0  0  0  0  0  0  0
   -5.2880  -14.0188    0.0000 N   0  0  0  0  0  0  0  0  0  0  0  0
   -3.7880  -14.0188    0.0000 N   0  0  0  0  0  0  0  0  0  0  0  0
   -3.0380  -12.7197    0.0000 N   0  0  0  0  0  0  0  0  0  0  0  0
    1.5937  -10.2072    0.0000 C   0  0  0  0  0  0  0  0  0  0  0  0
    1.1301   -8.7806    0.0000 O   0  0  0  0  0  0  0  0  0  0  0  0
    2.4271   -3.6073    0.0000 C   0  0  0  0  0  0  0  0  0  0  0  0
    3.9271   -3.6073    0.0000 O   0  0  0  0  0  0  0  0  0  0  0  0
    1.9635   -2.1807    0.0000 O   0  0  0  0  0  0  0  0  0  0  0  0
    0.7500   -1.2990    0.0000 C   0  0  0  0  0  0  0  0  0  0  0  0
    1.5000    0.0000    0.0000 C   0  0  0  0  0  0  0  0  0  0  0  0
    0.7500    1.2990    0.0000 C   0  0  0  0  0  0  0  0  0  0  0  0
   -0.7500    1.2990    0.0000 C   0  0  0  0  0  0  0  0  0  0  0  0
   -1.5000    0.0000    0.0000 C   0  0  0  0  0  0  0  0  0  0  0  0
   -0.7500   -1.2990    0.0000 C   0  0  0  0  0  0  0  0  0  0  0  0
   -1.9635   -2.1807    0.0000 C   0  0  0  0  0  0  0  0  0  0  0  0
   -2.9672   -1.0660    0.0000 C   0  0  0  0  0  0  0  0  0  0  0  0
   -4.4344   -1.3779    0.0000 C   0  0  0  0  0  0  0  0  0  0  0  0
   -4.8980   -2.8045    0.0000 C   0  0  0  0  0  0  0  0  0  0  0  0
   -3.8943   -3.9192    0.0000 C   0  0  0  0  0  0  0  0  0  0  0  0
   -2.4271   -3.6073    0.0000 C   0  0  0  0  0  0  0  0  0  0  0  0
  1  2  1  0
  2  3  2  0
  3  4  1  0
  4  5  2  0
  5  6  1  0
  6  7  2  0
  6  8  1  0
  8  9  1  0
  9 10  2  0
 10 11  1  0
 11 12  2  0
 12 13  1  0
 13 14  1  0
 14 15  2  0
 15 16  1  0
 16 17  2  0
 17 18  1  0
 18 19  1  0
 19 20  2  0
 19 21  1  0
 21 22  1  0
 22 23  2  0
 23 24  1  0
 24 25  2  0
 25 26  1  0
 26 27  2  0
 17 28  1  0
 28 29  2  0
  5 30  1  0
 30 31  2  0
 30 32  1  0
 32 33  1  0
 33 34  2  0
 34 35  1  0
 35 36  2  0
 36 37  1  0
 37 38  2  0
 38 39  1  0
 39 40  2  0
 40 41  1  0
 41 42  2  0
 42 43  1  0
 43 44  2  0
 44  2  1  0
 13  9  1  0
 28 14  1  0
 38 33  1  0
 44 39  1  0
 27 22  1  0
M  END
>  <Title>  (308) 
idAAJXgen14

$$$$

     RDKit          2D

 53 59  0  0  0  0  0  0  0  0999 V2000
   -6.7871  -11.9852    0.0000 C   0  0  0  0  0  0  0  0  0  0  0  0
   -7.0990  -10.5179    0.0000 C   0  0  0  0  0  0  0  0  0  0  0  0
   -8.5256  -10.0544    0.0000 C   0  0  0  0  0  0  0  0  0  0  0  0
   -5.9843   -9.5142    0.0000 C   0  0  0  0  0  0  0  0  0  0  0  0
   -6.2961   -8.0470    0.0000 C   0  0  0  0  0  0  0  0  0  0  0  0
   -7.7227   -7.5835    0.0000 C   0  0  0  0  0  0  0  0  0  0  0  0
   -5.1814   -7.0433    0.0000 N   0  0  0  0  0  0  0  0  0  0  0  0
   -3.7548   -7.5069    0.0000 C   0  0  0  0  0  0  0  0  0  0  0  0
   -3.4430   -8.9741    0.0000 O   0  0  0  0  0  0  0  0  0  0  0  0
   -2.6401   -6.5032    0.0000 N   0  0  0  0  0  0  0  0  0  0  0  0
   -1.2135   -6.9667    0.0000 C   0  0  0  0  0  0  0  0  0  0  0  0
   -0.7500   -8.3933    0.0000 N   0  0  0  0  0  0  0  0  0  0  0  0
    0.7500   -8.3933    0.0000 N   0  0  0  0  0  0  0  0  0  0  0  0
    1.2135   -6.9667    0.0000 N   0  0  0  0  0  0  0  0  0  0  0  0
   -0.0000   -6.0850    0.0000 N   0  0  0  0  0  0  0  0  0  0  0  0
   -0.0000   -4.5850    0.0000 N   0  0  0  0  0  0  0  0  0  0  0  0
    1.3515   -3.9342    0.0000 C   0  0  0  0  0  0  0  0  0  0  0  0
    1.6852   -2.4718    0.0000 C   0  0  0  0  0  0  0  0  0  0  0  0
    3.1476   -2.1380    0.0000 C   0  0  0  0  0  0  0  0  0  0  0  0
    3.5898   -0.7046    0.0000 O   0  0  0  0  0  0  0  0  0  0  0  0
    4.1679   -3.2376    0.0000 N   0  0  0  0  0  0  0  0  0  0  0  0
    5.6303   -2.9038    0.0000 C   0  0  0  0  0  0  0  0  0  0  0  0
    6.2198   -1.5245    0.0000 N   0  0  0  0  0  0  0  0  0  0  0  0
    7.7138   -1.6590    0.0000 N   0  0  0  0  0  0  0  0  0  0  0  0
    8.0476   -3.1214    0.0000 N   0  0  0  0  0  0  0  0  0  0  0  0
    6.7599   -3.8907    0.0000 N   0  0  0  0  0  0  0  0  0  0  0  0
    6.6254   -5.3847    0.0000 N   0  0  0  0  0  0  0  0  0  0  0  0
    7.7550   -6.3716    0.0000 C   0  0  0  0  0  0  0  0  0  0  0  0
    7.1655   -7.7509    0.0000 C   0  0  0  0  0  0  0  0  0  0  0  0
    5.6715   -7.6164    0.0000 C   0  0  0  0  0  0  0  0  0  0  0  0
    4.6846   -8.7460    0.0000 C   0  0  0  0  0  0  0  0  0  0  0  0
    3.2129   -8.4561    0.0000 O   0  0  0  0  0  0  0  0  0  0  0  0
    5.1694  -10.1655    0.0000 N   0  0  0  0  0  0  0  0  0  0  0  0
    4.1825  -11.2951    0.0000 C   0  0  0  0  0  0  0  0  0  0  0  0
    2.7108  -11.0052    0.0000 N   0  0  0  0  0  0  0  0  0  0  0  0
    1.7239  -12.1348    0.0000 N   0  0  0  0  0  0  0  0  0  0  0  0
    2.2087  -13.5543    0.0000 N   0  0  0  0  0  0  0  0  0  0  0  0
    3.6804  -13.8442    0.0000 N   0  0  0  0  0  0  0  0  0  0  0  0
    4.6673  -12.7146    0.0000 N   0  0  0  0  0  0  0  0  0  0  0  0
    5.3378   -6.1540    0.0000 C   0  0  0  0  0  0  0  0  0  0  0  0
    3.9585   -5.5645    0.0000 O   0  0  0  0  0  0  0  0  0  0  0  0
    0.7500   -1.2990    0.0000 C   0  0  0  0  0  0  0  0  0  0  0  0
    1.5000    0.0000    0.0000 C   0  0  0  0  0  0  0  0  0  0  0  0
    0.7500    1.2990    0.0000 C   0  0  0  0  0  0  0  0  0  0  0  0
   -0.7500    1.2990    0.0000 C   0  0  0  0  0  0  0  0  0  0  0  0
   -1.5000    0.0000    0.0000 C   0  0  0  0  0  0  0  0  0  0  0  0
   -0.7500   -1.2990    0.0000 C   0  0  0  0  0  0  0  0  0  0  0  0
   -1.6852   -2.4718    0.0000 C   0  0  0  0  0  0  0  0  0  0  0  0
   -3.1186   -2.0297    0.0000 C   0  0  0  0  0  0  0  0  0  0  0  0
   -4.2182   -3.0499    0.0000 C   0  0  0  0  0  0  0  0  0  0  0  0
   -3.8844   -4.5123    0.0000 C   0  0  0  0  0  0  0  0  0  0  0  0
   -2.4510   -4.9544    0.0000 C   0  0  0  0  0  0  0  0  0  0  0  0
   -1.3515   -3.9342    0.0000 C   0  0  0  0  0  0  0  0  0  0  0  0
  1  2  1  0
  2  3  1  0
  2  4  1  0
  4  5  1  0
  5  6  1  0
  5  7  1  0
  7  8  1  0
  8  9  2  0
  8 10  1  0
 10 11  1  0
 11 12  2  0
 12 13  1  0
 13 14  2  0
 14 15  1  0
 15 16  1  0
 16 17  1  0
 17 18  2  0
 18 19  1  0
 19 20  2  0
 19 21  1  0
 21 22  1  0
 22 23  2  0
 23 24  1  0
 24 25  2  0
 25 26  1  0
 26 27  1  0
 27 28  1  0
 28 29  1  0
 29 30  1  0
 30 31  1  0
 31 32  2  0
 31 33  1  0
 33 34  1  0
 34 35  2  0
 35 36  1  0
 36 37  2  0
 37 38  1  0
 38 39  2  0
 30 40  1  0
 40 41  2  0
 18 42  1  0
 42 43  2  0
 43 44  1  0
 44 45  2  0
 45 46  1  0
 46 47  2  0
 47 48  1  0
 48 49  2  0
 49 50  1  0
 50 51  2  0
 51 52  1  0
 52 53  2  0
 15 11  1  0
 53 16  1  0
 26 22  1  0
 40 27  1  0
 47 42  1  0
 53 48  1  0
 39 34  1  0
M  END
>  <Title>  (309) 
idAAJYgen14

$$$$

     RDKit          2D

 18 19  0  0  0  0  0  0  0  0999 V2000
    8.2500   -3.8971    0.0000 C   0  0  0  0  0  0  0  0  0  0  0  0
    7.5000   -2.5981    0.0000 C   0  0  0  0  0  0  0  0  0  0  0  0
    6.0000   -2.5981    0.0000 C   0  0  0  0  0  0  0  0  0  0  0  0
    5.2500   -1.2990    0.0000 N   0  0  0  0  0  0  0  0  0  0  0  0
    3.7500   -1.2990    0.0000 C   0  0  0  0  0  0  0  0  0  0  0  0
    3.0000   -2.5981    0.0000 O   0  0  0  0  0  0  0  0  0  0  0  0
    3.0000    0.0000    0.0000 N   0  0  0  0  0  0  0  0  0  0  0  0
    1.5000    0.0000    0.0000 C   0  0  0  0  0  0  0  0  0  0  0  0
    0.7500   -1.2990    0.0000 C   0  0  0  0  0  0  0  0  0  0  0  0
   -0.7500   -1.2990    0.0000 S   0  0  0  0  0  0  0  0  0  0  0  0
   -1.5000    0.0000    0.0000 O   0  0  0  0  0  0  0  0  0  0  0  0
   -0.7500    1.2990    0.0000 C   0  0  0  0  0  0  0  0  0  0  0  0
   -1.5000    2.5981    0.0000 C   0  0  0  0  0  0  0  0  0  0  0  0
   -0.7500    3.8971    0.0000 C   0  0  0  0  0  0  0  0  0  0  0  0
    0.7500    3.8971    0.0000 C   0  0  0  0  0  0  0  0  0  0  0  0
    1.5000    5.1962    0.0000 F   0  0  0  0  0  0  0  0  0  0  0  0
    1.5000    2.5981    0.0000 C   0  0  0  0  0  0  0  0  0  0  0  0
    0.7500    1.2990    0.0000 C   0  0  0  0  0  0  0  0  0  0  0  0
  1  2  1  0
  2  3  2  3
  3  4  1  0
  4  5  1  0
  5  6  2  0
  5  7  1  0
  7  8  1  0
  8  9  2  0
  9 10  1  0
 10 11  1  0
 11 12  1  0
 12 13  2  0
 13 14  1  0
 14 15  2  0
 15 16  1  0
 15 17  1  0
 17 18  2  0
 18  8  1  0
 18 12  1  0
M  END
>  <Title>  (310) 
idAAJZgen14

$$$$

     RDKit          2D

113114  0  0  0  0  0  0  0  0999 V2000
   12.9081    4.4865    0.0000 C   0  0  0  0  0  0  0  0  0  0  0  0
   13.7052    4.4772    0.0000 C   0  0  0  0  0  0  0  0  0  0  0  0
   13.8082    5.9737    0.0000 C   0  0  0  0  0  0  0  0  0  0  0  0
   14.0812    7.4486    0.0000 C   0  0  0  0  0  0  0  0  0  0  0  0
   14.5205    8.8829    0.0000 C   0  0  0  0  0  0  0  0  0  0  0  0
   15.1204   10.2577    0.0000 C   0  0  0  0  0  0  0  0  0  0  0  0
   15.8731   11.5551    0.0000 C   0  0  0  0  0  0  0  0  0  0  0  0
   16.7688   12.7583    0.0000 C   0  0  0  0  0  0  0  0  0  0  0  0
   17.7959   13.8516    0.0000 C   0  0  0  0  0  0  0  0  0  0  0  0
   18.9408   14.8207    0.0000 C   0  0  0  0  0  0  0  0  0  0  0  0
   20.1888   15.6529    0.0000 C   0  0  0  0  0  0  0  0  0  0  0  0
   21.5235   16.3374    0.0000 C   0  0  0  0  0  0  0  0  0  0  0  0
   22.9275   16.8654    0.0000 C   0  0  0  0  0  0  0  0  0  0  0  0
   24.3825   17.2298    0.0000 C   0  0  0  0  0  0  0  0  0  0  0  0
   25.8697   17.4260    0.0000 C   0  0  0  0  0  0  0  0  0  0  0  0
   27.3694   17.4514    0.0000 C   0  0  0  0  0  0  0  0  0  0  0  0
   28.8623   17.3057    0.0000 C   0  0  0  0  0  0  0  0  0  0  0  0
   30.3289   16.9908    0.0000 C   0  0  0  0  0  0  0  0  0  0  0  0
   31.7500   16.5107    0.0000 C   0  0  0  0  0  0  0  0  0  0  0  0
   33.1071   15.8718    0.0000 C   0  0  0  0  0  0  0  0  0  0  0  0
   34.3826   15.0823    0.0000 C   0  0  0  0  0  0  0  0  0  0  0  0
   35.5597   14.1526    0.0000 C   0  0  0  0  0  0  0  0  0  0  0  0
   36.6232   13.0948    0.0000 C   0  0  0  0  0  0  0  0  0  0  0  0
   37.5591   11.9226    0.0000 C   0  0  0  0  0  0  0  0  0  0  0  0
   38.3554   10.6514    0.0000 C   0  0  0  0  0  0  0  0  0  0  0  0
   39.0015    9.2977    0.0000 C   0  0  0  0  0  0  0  0  0  0  0  0
   39.4892    7.8792    0.0000 C   0  0  0  0  0  0  0  0  0  0  0  0
   39.8119    6.4143    0.0000 C   0  0  0  0  0  0  0  0  0  0  0  0
   39.9656    4.9222    0.0000 C   0  0  0  0  0  0  0  0  0  0  0  0
   39.9482    3.4223    0.0000 C   0  0  0  0  0  0  0  0  0  0  0  0
   39.7599    1.9341    0.0000 C   0  0  0  0  0  0  0  0  0  0  0  0
   39.4032    0.4772    0.0000 C   0  0  0  0  0  0  0  0  0  0  0  0
   38.8827   -0.9296    0.0000 C   0  0  0  0  0  0  0  0  0  0  0  0
   38.2053   -2.2680    0.0000 C   0  0  0  0  0  0  0  0  0  0  0  0
   37.3797   -3.5203    0.0000 C   0  0  0  0  0  0  0  0  0  0  0  0
   36.4168   -4.6704    0.0000 C   0  0  0  0  0  0  0  0  0  0  0  0
   35.3290   -5.7033    0.0000 C   0  0  0  0  0  0  0  0  0  0  0  0
   34.1306   -6.6054    0.0000 C   0  0  0  0  0  0  0  0  0  0  0  0
   32.8372   -7.3650    0.0000 C   0  0  0  0  0  0  0  0  0  0  0  0
   31.4656   -7.9722    0.0000 C   0  0  0  0  0  0  0  0  0  0  0  0
   30.0337   -8.4192    0.0000 C   0  0  0  0  0  0  0  0  0  0  0  0
   28.5602   -8.6999    0.0000 C   0  0  0  0  0  0  0  0  0  0  0  0
   27.0643   -8.8109    0.0000 C   0  0  0  0  0  0  0  0  0  0  0  0
   25.5655   -8.7507    0.0000 C   0  0  0  0  0  0  0  0  0  0  0  0
   24.0834   -8.5200    0.0000 C   0  0  0  0  0  0  0  0  0  0  0  0
   22.6372   -8.1218    0.0000 C   0  0  0  0  0  0  0  0  0  0  0  0
   21.2458   -7.5614    0.0000 C   0  0  0  0  0  0  0  0  0  0  0  0
   19.9274   -6.8460    0.0000 C   0  0  0  0  0  0  0  0  0  0  0  0
   18.6991   -5.9851    0.0000 C   0  0  0  0  0  0  0  0  0  0  0  0
   17.5770   -4.9897    0.0000 C   0  0  0  0  0  0  0  0  0  0  0  0
   16.5756   -3.8728    0.0000 C   0  0  0  0  0  0  0  0  0  0  0  0
   15.7081   -2.6492    0.0000 C   0  0  0  0  0  0  0  0  0  0  0  0
   14.9857   -1.3346    0.0000 C   0  0  0  0  0  0  0  0  0  0  0  0
   14.4179    0.0538    0.0000 C   0  0  0  0  0  0  0  0  0  0  0  0
   14.0120    1.4979    0.0000 C   0  0  0  0  0  0  0  0  0  0  0  0
   13.3919   -0.0000    0.0000 C   0  0  0  0  0  0  0  0  0  0  0  0
   13.3160   -1.4235    0.0000 C   0  0  0  0  0  0  0  0  0  0  0  0
   13.0893   -2.8308    0.0000 C   0  0  0  0  0  0  0  0  0  0  0  0
   12.7142   -4.2061    0.0000 C   0  0  0  0  0  0  0  0  0  0  0  0
   12.1951   -5.5337    0.0000 C   0  0  0  0  0  0  0  0  0  0  0  0
   11.5378   -6.7986    0.0000 C   0  0  0  0  0  0  0  0  0  0  0  0
   10.7498   -7.9865    0.0000 C   0  0  0  0  0  0  0  0  0  0  0  0
    9.8400   -9.0839    0.0000 C   0  0  0  0  0  0  0  0  0  0  0  0
    8.8187  -10.0783    0.0000 C   0  0  0  0  0  0  0  0  0  0  0  0
    7.6975  -10.9586    0.0000 C   0  0  0  0  0  0  0  0  0  0  0  0
    6.4890  -11.7147    0.0000 C   0  0  0  0  0  0  0  0  0  0  0  0
    5.2071  -12.3381    0.0000 C   0  0  0  0  0  0  0  0  0  0  0  0
    3.8661  -12.8217    0.0000 C   0  0  0  0  0  0  0  0  0  0  0  0
    2.4814  -13.1600    0.0000 C   0  0  0  0  0  0  0  0  0  0  0  0
    1.0685  -13.3492    0.0000 C   0  0  0  0  0  0  0  0  0  0  0  0
   -0.3565  -13.3871    0.0000 C   0  0  0  0  0  0  0  0  0  0  0  0
   -1.7774  -13.2734    0.0000 C   0  0  0  0  0  0  0  0  0  0  0  0
   -3.1782  -13.0093    0.0000 C   0  0  0  0  0  0  0  0  0  0  0  0
   -4.5430  -12.5977    0.0000 C   0  0  0  0  0  0  0  0  0  0  0  0
   -5.8564  -12.0435    0.0000 C   0  0  0  0  0  0  0  0  0  0  0  0
   -7.1033  -11.3527    0.0000 C   0  0  0  0  0  0  0  0  0  0  0  0
   -8.2698  -10.5334    0.0000 C   0  0  0  0  0  0  0  0  0  0  0  0
   -9.3426   -9.5947    0.0000 C   0  0  0  0  0  0  0  0  0  0  0  0
  -10.3095   -8.5473    0.0000 C   0  0  0  0  0  0  0  0  0  0  0  0
  -11.1596   -7.4030    0.0000 C   0  0  0  0  0  0  0  0  0  0  0  0
  -11.8833   -6.1749    0.0000 C   0  0  0  0  0  0  0  0  0  0  0  0
  -12.4723   -4.8768    0.0000 C   0  0  0  0  0  0  0  0  0  0  0  0
  -12.9200   -3.5234    0.0000 C   0  0  0  0  0  0  0  0  0  0  0  0
  -13.2214   -2.1302    0.0000 C   0  0  0  0  0  0  0  0  0  0  0  0
  -13.3729   -0.7127    0.0000 C   0  0  0  0  0  0  0  0  0  0  0  0
  -13.3729    0.7127    0.0000 C   0  0  0  0  0  0  0  0  0  0  0  0
  -13.2214    2.1302    0.0000 C   0  0  0  0  0  0  0  0  0  0  0  0
  -12.9200    3.5234    0.0000 C   0  0  0  0  0  0  0  0  0  0  0  0
  -12.4723    4.8768    0.0000 C   0  0  0  0  0  0  0  0  0  0  0  0
  -11.8833    6.1749    0.0000 C   0  0  0  0  0  0  0  0  0  0  0  0
  -11.1596    7.4030    0.0000 C   0  0  0  0  0  0  0  0  0  0  0  0
  -10.3095    8.5473    0.0000 C   0  0  0  0  0  0  0  0  0  0  0  0
   -9.3426    9.5947    0.0000 C   0  0  0  0  0  0  0  0  0  0  0  0
   -8.2698   10.5334    0.0000 C   0  0  0  0  0  0  0  0  0  0  0  0
   -7.1033   11.3527    0.0000 C   0  0  0  0  0  0  0  0  0  0  0  0
   -5.8564   12.0435    0.0000 C   0  0  0  0  0  0  0  0  0  0  0  0
   -4.5430   12.5977    0.0000 C   0  0  0  0  0  0  0  0  0  0  0  0
   -3.1782   13.0093    0.0000 C   0  0  0  0  0  0  0  0  0  0  0  0
   -1.7774   13.2734    0.0000 C   0  0  0  0  0  0  0  0  0  0  0  0
   -0.3565   13.3871    0.0000 C   0  0  0  0  0  0  0  0  0  0  0  0
    1.0685   13.3492    0.0000 C   0  0  0  0  0  0  0  0  0  0  0  0
    2.4814   13.1600    0.0000 C   0  0  0  0  0  0  0  0  0  0  0  0
    3.8661   12.8217    0.0000 C   0  0  0  0  0  0  0  0  0  0  0  0
    5.2071   12.3381    0.0000 C   0  0  0  0  0  0  0  0  0  0  0  0
    6.4890   11.7147    0.0000 C   0  0  0  0  0  0  0  0  0  0  0  0
    7.6975   10.9586    0.0000 C   0  0  0  0  0  0  0  0  0  0  0  0
    8.8187   10.0783    0.0000 C   0  0  0  0  0  0  0  0  0  0  0  0
    9.8400    9.0839    0.0000 C   0  0  0  0  0  0  0  0  0  0  0  0
   10.7498    7.9865    0.0000 C   0  0  0  0  0  0  0  0  0  0  0  0
   11.5378    6.7986    0.0000 C   0  0  0  0  0  0  0  0  0  0  0  0
   12.1951    5.5337    0.0000 C   0  0  0  0  0  0  0  0  0  0  0  0
   12.7142    4.2061    0.0000 C   0  0  0  0  0  0  0  0  0  0  0  0
   13.7734    2.9788    0.0000 C   0  0  0  0  0  0  0  0  0  0  0  0
  1  2  1  0
  2  3  1  0
  3  4  1  0
  4  5  1  0
  5  6  1  0
  6  7  1  0
  7  8  1  0
  8  9  1  0
  9 10  1  0
 10 11  1  0
 11 12  1  0
 12 13  1  0
 13 14  1  0
 14 15  1  0
 15 16  1  0
 16 17  1  0
 17 18  1  0
 18 19  1  0
 19 20  1  0
 20 21  1  0
 21 22  1  0
 22 23  1  0
 23 24  1  0
 24 25  1  0
 25 26  1  0
 26 27  1  0
 27 28  1  0
 28 29  1  0
 29 30  1  0
 30 31  1  0
 31 32  1  0
 32 33  1  0
 33 34  1  0
 34 35  1  0
 35 36  1  0
 36 37  1  0
 37 38  1  0
 38 39  1  0
 39 40  1  0
 40 41  1  0
 41 42  1  0
 42 43  1  0
 43 44  1  0
 44 45  1  0
 45 46  1  0
 46 47  1  0
 47 48  1  0
 48 49  1  0
 49 50  1  0
 50 51  1  0
 51 52  1  0
 52 53  1  0
 53 54  1  0
 54 55  1  0
 55 56  1  0
 56 57  1  0
 57 58  1  0
 58 59  1  0
 59 60  1  0
 60 61  1  0
 61 62  1  0
 62 63  1  0
 63 64  1  0
 64 65  1  0
 65 66  1  0
 66 67  1  0
 67 68  1  0
 68 69  1  0
 69 70  1  0
 70 71  1  0
 71 72  1  0
 72 73  1  0
 73 74  1  0
 74 75  1  0
 75 76  1  0
 76 77  1  0
 77 78  1  0
 78 79  1  0
 79 80  1  0
 80 81  1  0
 81 82  1  0
 82 83  1  0
 83 84  1  0
 84 85  1  0
 85 86  1  0
 86 87  1  0
 87 88  1  0
 88 89  1  0
 89 90  1  0
 90 91  1  0
 91 92  1  0
 92 93  1  0
 93 94  1  0
 94 95  1  0
 95 96  1  0
 96 97  1  0
 97 98  1  0
 98 99  2  0
 99100  1  0
100101  2  0
101102  1  0
102103  2  0
103104  1  0
104105  2  0
105106  1  0
106107  2  0
107108  1  0
108109  2  0
109110  1  0
110111  2  0
111112  1  0
112113  2  0
113  2  1  0
113 55  1  0
M  END
>  <Title>  (311) 
idAAKAgen14

$$$$

     RDKit          2D

 33 37  0  0  0  0  0  0  0  0999 V2000
   -2.6401   -3.1891    0.0000 C   0  0  0  0  0  0  0  0  0  0  0  0
   -1.2135   -2.7256    0.0000 C   0  0  0  0  0  0  0  0  0  0  0  0
   -0.0000   -3.6073    0.0000 N   0  0  0  0  0  0  0  0  0  0  0  0
    1.2135   -2.7256    0.0000 C   0  0  0  0  0  0  0  0  0  0  0  0
    2.6401   -3.1891    0.0000 C   0  0  0  0  0  0  0  0  0  0  0  0
    3.7548   -2.1855    0.0000 O   0  0  0  0  0  0  0  0  0  0  0  0
    2.9520   -4.6564    0.0000 N   0  0  0  0  0  0  0  0  0  0  0  0
    4.3786   -5.1199    0.0000 C   0  0  0  0  0  0  0  0  0  0  0  0
    5.5921   -4.2382    0.0000 N   0  0  0  0  0  0  0  0  0  0  0  0
    6.8056   -5.1199    0.0000 N   0  0  0  0  0  0  0  0  0  0  0  0
    6.3421   -6.5465    0.0000 N   0  0  0  0  0  0  0  0  0  0  0  0
    4.8421   -6.5465    0.0000 N   0  0  0  0  0  0  0  0  0  0  0  0
    3.9604   -7.7600    0.0000 N   0  0  0  0  0  0  0  0  0  0  0  0
    4.4239   -9.1866    0.0000 C   0  0  0  0  0  0  0  0  0  0  0  0
    3.2104  -10.0683    0.0000 C   0  0  0  0  0  0  0  0  0  0  0  0
    1.9969   -9.1866    0.0000 N   0  0  0  0  0  0  0  0  0  0  0  0
    0.5703   -9.6501    0.0000 C   0  0  0  0  0  0  0  0  0  0  0  0
    0.2584  -11.1173    0.0000 O   0  0  0  0  0  0  0  0  0  0  0  0
   -0.5444   -8.6464    0.0000 N   0  0  0  0  0  0  0  0  0  0  0  0
   -1.9710   -9.1099    0.0000 C   0  0  0  0  0  0  0  0  0  0  0  0
   -3.0857   -8.1062    0.0000 N   0  0  0  0  0  0  0  0  0  0  0  0
   -4.5123   -8.5698    0.0000 N   0  0  0  0  0  0  0  0  0  0  0  0
   -4.8242  -10.0370    0.0000 N   0  0  0  0  0  0  0  0  0  0  0  0
   -3.7095  -11.0407    0.0000 N   0  0  0  0  0  0  0  0  0  0  0  0
   -2.2829  -10.5772    0.0000 N   0  0  0  0  0  0  0  0  0  0  0  0
    2.4604   -7.7600    0.0000 C   0  0  0  0  0  0  0  0  0  0  0  0
    1.5787   -6.5465    0.0000 O   0  0  0  0  0  0  0  0  0  0  0  0
    0.7500   -1.2990    0.0000 C   0  0  0  0  0  0  0  0  0  0  0  0
    1.5000    0.0000    0.0000 C   0  0  0  0  0  0  0  0  0  0  0  0
    0.7500    1.2990    0.0000 C   0  0  0  0  0  0  0  0  0  0  0  0
   -0.7500    1.2990    0.0000 C   0  0  0  0  0  0  0  0  0  0  0  0
   -1.5000    0.0000    0.0000 C   0  0  0  0  0  0  0  0  0  0  0  0
   -0.7500   -1.2990    0.0000 C   0  0  0  0  0  0  0  0  0  0  0  0
  1  2  1  0
  2  3  2  0
  3  4  1  0
  4  5  1  0
  5  6  2  0
  5  7  1  0
  7  8  1  0
  8  9  2  0
  9 10  1  0
 10 11  2  0
 11 12  1  0
 12 13  1  0
 13 14  1  0
 14 15  1  0
 15 16  1  0
 16 17  1  0
 17 18  2  0
 17 19  1  0
 19 20  1  0
 20 21  2  0
 21 22  1  0
 22 23  2  0
 23 24  1  0
 24 25  2  0
 16 26  1  0
 26 27  2  0
  4 28  1  0
 28 29  2  0
 29 30  1  0
 30 31  2  0
 31 32  1  0
 32 33  2  0
 33  2  1  0
 12  8  1  0
 26 13  1  0
 33 28  1  0
 25 20  1  0
M  END
>  <Title>  (312) 
idAAKBgen14

$$$$

     RDKit          2D

 38 43  0  0  0  0  0  0  0  0999 V2000
   -3.8536   -0.8075    0.0000 C   0  0  0  0  0  0  0  0  0  0  0  0
   -3.8536   -2.3075    0.0000 C   0  0  0  0  0  0  0  0  0  0  0  0
   -5.0672   -3.1891    0.0000 C   0  0  0  0  0  0  0  0  0  0  0  0
   -4.6036   -4.6157    0.0000 C   0  0  0  0  0  0  0  0  0  0  0  0
   -3.1036   -4.6157    0.0000 N   0  0  0  0  0  0  0  0  0  0  0  0
   -2.6401   -3.1891    0.0000 N   0  0  0  0  0  0  0  0  0  0  0  0
   -1.2135   -2.7256    0.0000 N   0  0  0  0  0  0  0  0  0  0  0  0
   -0.0000   -3.6073    0.0000 C   0  0  0  0  0  0  0  0  0  0  0  0
    1.2135   -2.7256    0.0000 C   0  0  0  0  0  0  0  0  0  0  0  0
    2.6401   -3.1891    0.0000 C   0  0  0  0  0  0  0  0  0  0  0  0
    3.7548   -2.1855    0.0000 O   0  0  0  0  0  0  0  0  0  0  0  0
    2.9520   -4.6564    0.0000 N   0  0  0  0  0  0  0  0  0  0  0  0
    4.3786   -5.1199    0.0000 C   0  0  0  0  0  0  0  0  0  0  0  0
    5.5921   -4.2382    0.0000 N   0  0  0  0  0  0  0  0  0  0  0  0
    6.8056   -5.1199    0.0000 N   0  0  0  0  0  0  0  0  0  0  0  0
    6.3421   -6.5465    0.0000 N   0  0  0  0  0  0  0  0  0  0  0  0
    4.8421   -6.5465    0.0000 N   0  0  0  0  0  0  0  0  0  0  0  0
    3.9604   -7.7600    0.0000 N   0  0  0  0  0  0  0  0  0  0  0  0
    2.4789   -7.9947    0.0000 C   0  0  0  0  0  0  0  0  0  0  0  0
    2.7135   -9.4762    0.0000 C   0  0  0  0  0  0  0  0  0  0  0  0
    1.8319  -10.6897    0.0000 C   0  0  0  0  0  0  0  0  0  0  0  0
    2.4420  -12.0600    0.0000 O   0  0  0  0  0  0  0  0  0  0  0  0
    0.3401  -10.5329    0.0000 N   0  0  0  0  0  0  0  0  0  0  0  0
   -0.5416  -11.7464    0.0000 C   0  0  0  0  0  0  0  0  0  0  0  0
   -2.0334  -11.5897    0.0000 N   0  0  0  0  0  0  0  0  0  0  0  0
   -2.9151  -12.8032    0.0000 N   0  0  0  0  0  0  0  0  0  0  0  0
   -2.3050  -14.1735    0.0000 N   0  0  0  0  0  0  0  0  0  0  0  0
   -0.8132  -14.3303    0.0000 N   0  0  0  0  0  0  0  0  0  0  0  0
    0.0685  -13.1168    0.0000 N   0  0  0  0  0  0  0  0  0  0  0  0
    4.1951   -9.2415    0.0000 C   0  0  0  0  0  0  0  0  0  0  0  0
    5.4086  -10.1232    0.0000 O   0  0  0  0  0  0  0  0  0  0  0  0
    0.7500   -1.2990    0.0000 C   0  0  0  0  0  0  0  0  0  0  0  0
    1.5000    0.0000    0.0000 C   0  0  0  0  0  0  0  0  0  0  0  0
    0.7500    1.2990    0.0000 C   0  0  0  0  0  0  0  0  0  0  0  0
   -0.7500    1.2990    0.0000 C   0  0  0  0  0  0  0  0  0  0  0  0
   -1.5000    2.5981    0.0000 O   0  0  0  0  0  0  0  0  0  0  0  0
   -1.5000    0.0000    0.0000 C   0  0  0  0  0  0  0  0  0  0  0  0
   -0.7500   -1.2990    0.0000 C   0  0  0  0  0  0  0  0  0  0  0  0
  1  2  1  0
  2  3  2  0
  3  4  1  0
  4  5  2  0
  5  6  1  0
  6  7  1  0
  7  8  1  0
  8  9  2  0
  9 10  1  0
 10 11  2  0
 10 12  1  0
 12 13  1  0
 13 14  2  0
 14 15  1  0
 15 16  2  0
 16 17  1  0
 17 18  1  0
 18 19  1  0
 19 20  2  0
 20 21  1  0
 21 22  2  0
 21 23  1  0
 23 24  1  0
 24 25  2  0
 25 26  1  0
 26 27  2  0
 27 28  1  0
 28 29  2  0
 20 30  1  0
 30 31  2  0
  9 32  1  0
 32 33  2  0
 33 34  1  0
 34 35  2  0
 35 36  1  0
 35 37  1  0
 37 38  2  0
  6  2  1  0
 38  7  1  0
 17 13  1  0
 30 18  1  0
 38 32  1  0
 29 24  1  0
M  END
>  <Title>  (313) 
idAAKCgen14

$$$$

     RDKit          2D

 37 41  0  0  0  0  0  0  0  0999 V2000
   -5.2500   -3.8971    0.0000 C   0  0  0  0  0  0  0  0  0  0  0  0
   -3.7500   -3.8971    0.0000 C   0  0  0  0  0  0  0  0  0  0  0  0
   -3.0000   -5.1962    0.0000 O   0  0  0  0  0  0  0  0  0  0  0  0
   -3.0000   -2.5981    0.0000 N   0  0  0  0  0  0  0  0  0  0  0  0
   -1.5000   -2.5981    0.0000 C   0  0  0  0  0  0  0  0  0  0  0  0
   -0.7500   -3.8971    0.0000 C   0  0  0  0  0  0  0  0  0  0  0  0
    0.7500   -3.8971    0.0000 S   0  0  0  0  0  4  0  0  0  0  0  0
    1.5000   -2.5981    0.0000 C   0  0  0  0  0  0  0  0  0  0  0  0
    3.0000   -2.5981    0.0000 C   0  0  0  0  0  0  0  0  0  0  0  0
    3.7500   -1.2990    0.0000 O   0  0  0  0  0  0  0  0  0  0  0  0
    3.7500   -3.8971    0.0000 N   0  0  0  0  0  0  0  0  0  0  0  0
    5.2500   -3.8971    0.0000 C   0  0  0  0  0  0  0  0  0  0  0  0
    6.1317   -2.6836    0.0000 N   0  0  0  0  0  0  0  0  0  0  0  0
    7.5583   -3.1471    0.0000 N   0  0  0  0  0  0  0  0  0  0  0  0
    7.5583   -4.6471    0.0000 N   0  0  0  0  0  0  0  0  0  0  0  0
    6.1317   -5.1106    0.0000 N   0  0  0  0  0  0  0  0  0  0  0  0
    5.6682   -6.5372    0.0000 N   0  0  0  0  0  0  0  0  0  0  0  0
    6.5498   -7.7508    0.0000 C   0  0  0  0  0  0  0  0  0  0  0  0
    5.6682   -8.9643    0.0000 C   0  0  0  0  0  0  0  0  0  0  0  0
    4.2416   -8.5008    0.0000 N   0  0  0  0  0  0  0  0  0  0  0  0
    3.0280   -9.3824    0.0000 C   0  0  0  0  0  0  0  0  0  0  0  0
    3.1848  -10.8742    0.0000 O   0  0  0  0  0  0  0  0  0  0  0  0
    1.6577   -8.7723    0.0000 N   0  0  0  0  0  0  0  0  0  0  0  0
    0.4442   -9.6540    0.0000 C   0  0  0  0  0  0  0  0  0  0  0  0
   -0.9261   -9.0439    0.0000 N   0  0  0  0  0  0  0  0  0  0  0  0
   -2.1396   -9.9256    0.0000 N   0  0  0  0  0  0  0  0  0  0  0  0
   -1.9829  -11.4174    0.0000 N   0  0  0  0  0  0  0  0  0  0  0  0
   -0.6125  -12.0275    0.0000 N   0  0  0  0  0  0  0  0  0  0  0  0
    0.6010  -11.1458    0.0000 N   0  0  0  0  0  0  0  0  0  0  0  0
    4.2416   -7.0008    0.0000 C   0  0  0  0  0  0  0  0  0  0  0  0
    3.0280   -6.1191    0.0000 O   0  0  0  0  0  0  0  0  0  0  0  0
    0.7500   -1.2990    0.0000 C   0  0  0  0  0  0  0  0  0  0  0  0
    1.5000    0.0000    0.0000 C   0  0  0  0  0  0  0  0  0  0  0  0
    0.7500    1.2990    0.0000 C   0  0  0  0  0  0  0  0  0  0  0  0
   -0.7500    1.2990    0.0000 C   0  0  0  0  0  0  0  0  0  0  0  0
   -1.5000    0.0000    0.0000 C   0  0  0  0  0  0  0  0  0  0  0  0
   -0.7500   -1.2990    0.0000 C   0  0  0  0  0  0  0  0  0  0  0  0
  1  2  1  0
  2  3  2  0
  2  4  1  0
  4  5  1  0
  5  6  2  0
  6  7  1  0
  7  8  2  0
  8  9  1  0
  9 10  2  0
  9 11  1  0
 11 12  1  0
 12 13  2  0
 13 14  1  0
 14 15  2  0
 15 16  1  0
 16 17  1  0
 17 18  1  0
 18 19  1  0
 19 20  1  0
 20 21  1  0
 21 22  2  0
 21 23  1  0
 23 24  1  0
 24 25  2  0
 25 26  1  0
 26 27  2  0
 27 28  1  0
 28 29  2  0
 20 30  1  0
 30 31  2  0
  8 32  1  0
 32 33  2  0
 33 34  1  0
 34 35  2  0
 35 36  1  0
 36 37  2  0
 37  5  1  0
 16 12  1  0
 30 17  1  0
 37 32  1  0
 29 24  1  0
M  END
>  <Title>  (314) 
idAAKDgen14

$$$$

     RDKit          2D

 34 38  0  0  0  0  0  0  0  0999 V2000
   -3.0000   -2.5981    0.0000 C   0  0  0  0  0  0  0  0  0  0  0  0
   -1.5000   -2.5981    0.0000 N   0  0  0  0  0  0  0  0  0  0  0  0
   -0.7500   -3.8971    0.0000 C   0  0  0  0  0  0  0  0  0  0  0  0
    0.7500   -3.8971    0.0000 C   0  0  0  0  0  0  0  0  0  0  0  0
    1.5000   -2.5981    0.0000 C   0  0  0  0  0  0  0  0  0  0  0  0
    3.0000   -2.5981    0.0000 C   0  0  0  0  0  0  0  0  0  0  0  0
    3.7500   -1.2990    0.0000 O   0  0  0  0  0  0  0  0  0  0  0  0
    3.7500   -3.8971    0.0000 N   0  0  0  0  0  0  0  0  0  0  0  0
    5.2500   -3.8971    0.0000 C   0  0  0  0  0  0  0  0  0  0  0  0
    6.1317   -2.6836    0.0000 N   0  0  0  0  0  0  0  0  0  0  0  0
    7.5583   -3.1471    0.0000 N   0  0  0  0  0  0  0  0  0  0  0  0
    7.5583   -4.6471    0.0000 N   0  0  0  0  0  0  0  0  0  0  0  0
    6.1317   -5.1106    0.0000 N   0  0  0  0  0  0  0  0  0  0  0  0
    5.6682   -6.5372    0.0000 N   0  0  0  0  0  0  0  0  0  0  0  0
    6.5498   -7.7508    0.0000 C   0  0  0  0  0  0  0  0  0  0  0  0
    5.6682   -8.9643    0.0000 C   0  0  0  0  0  0  0  0  0  0  0  0
    4.2416   -8.5008    0.0000 N   0  0  0  0  0  0  0  0  0  0  0  0
    3.0280   -9.3824    0.0000 C   0  0  0  0  0  0  0  0  0  0  0  0
    3.1848  -10.8742    0.0000 O   0  0  0  0  0  0  0  0  0  0  0  0
    1.6577   -8.7723    0.0000 N   0  0  0  0  0  0  0  0  0  0  0  0
    0.4442   -9.6540    0.0000 C   0  0  0  0  0  0  0  0  0  0  0  0
   -0.9261   -9.0439    0.0000 N   0  0  0  0  0  0  0  0  0  0  0  0
   -2.1396   -9.9256    0.0000 N   0  0  0  0  0  0  0  0  0  0  0  0
   -1.9829  -11.4174    0.0000 N   0  0  0  0  0  0  0  0  0  0  0  0
   -0.6125  -12.0275    0.0000 N   0  0  0  0  0  0  0  0  0  0  0  0
    0.6010  -11.1458    0.0000 N   0  0  0  0  0  0  0  0  0  0  0  0
    4.2416   -7.0008    0.0000 C   0  0  0  0  0  0  0  0  0  0  0  0
    3.0280   -6.1191    0.0000 O   0  0  0  0  0  0  0  0  0  0  0  0
    0.7500   -1.2990    0.0000 C   0  0  0  0  0  0  0  0  0  0  0  0
    1.5000    0.0000    0.0000 C   0  0  0  0  0  0  0  0  0  0  0  0
    0.7500    1.2990    0.0000 C   0  0  0  0  0  0  0  0  0  0  0  0
   -0.7500    1.2990    0.0000 C   0  0  0  0  0  0  0  0  0  0  0  0
   -1.5000    0.0000    0.0000 C   0  0  0  0  0  0  0  0  0  0  0  0
   -0.7500   -1.2990    0.0000 C   0  0  0  0  0  0  0  0  0  0  0  0
  1  2  1  0
  2  3  1  0
  3  4  2  0
  4  5  1  0
  5  6  1  0
  6  7  2  0
  6  8  1  0
  8  9  1  0
  9 10  2  0
 10 11  1  0
 11 12  2  0
 12 13  1  0
 13 14  1  0
 14 15  1  0
 15 16  1  0
 16 17  1  0
 17 18  1  0
 18 19  2  0
 18 20  1  0
 20 21  1  0
 21 22  2  0
 22 23  1  0
 23 24  2  0
 24 25  1  0
 25 26  2  0
 17 27  1  0
 27 28  2  0
  5 29  1  0
 29 30  2  0
 30 31  1  0
 31 32  2  0
 32 33  1  0
 33 34  2  0
 34  2  1  0
 13  9  1  0
 27 14  1  0
 34 29  1  0
 26 21  1  0
M  END
>  <Title>  (315) 
idAAKEgen14

$$$$

     RDKit          2D

  8  8  0  0  0  0  0  0  0  0999 V2000
    3.7500   -1.2990    0.0000 C   0  0  0  0  0  0  0  0  0  0  0  0
    3.0000    0.0000    0.0000 C   0  0  0  0  0  0  0  0  0  0  0  0
    1.5000    0.0000    0.0000 C   0  0  0  0  0  0  0  0  0  0  0  0
    0.7500   -1.2990    0.0000 C   0  0  0  0  0  0  0  0  0  0  0  0
   -0.7500   -1.2990    0.0000 C   0  0  0  0  0  0  0  0  0  0  0  0
   -1.5000    0.0000    0.0000 C   0  0  0  0  0  0  0  0  0  0  0  0
   -0.7500    1.2990    0.0000 C   0  0  0  0  0  0  0  0  0  0  0  0
    0.7500    1.2990    0.0000 C   0  0  0  0  0  0  0  0  0  0  0  0
  1  2  1  0
  2  3  1  0
  3  4  2  0
  4  5  1  0
  5  6  1  0
  6  7  1  0
  7  8  2  0
  8  3  1  0
M  END
>  <Title>  (316) 
idAAKFgen14

$$$$

     RDKit          2D

 35 39  0  0  0  0  0  0  0  0999 V2000
   -3.1476   -2.1380    0.0000 C   0  0  0  0  0  0  0  0  0  0  0  0
   -1.6852   -2.4718    0.0000 C   0  0  0  0  0  0  0  0  0  0  0  0
   -1.3515   -3.9342    0.0000 C   0  0  0  0  0  0  0  0  0  0  0  0
   -0.0000   -4.5850    0.0000 C   0  0  0  0  0  0  0  0  0  0  0  0
    1.3515   -3.9342    0.0000 C   0  0  0  0  0  0  0  0  0  0  0  0
    1.6852   -2.4718    0.0000 C   0  0  0  0  0  0  0  0  0  0  0  0
    3.1476   -2.1380    0.0000 C   0  0  0  0  0  0  0  0  0  0  0  0
    3.5898   -0.7046    0.0000 O   0  0  0  0  0  0  0  0  0  0  0  0
    4.1679   -3.2376    0.0000 N   0  0  0  0  0  0  0  0  0  0  0  0
    5.6303   -2.9038    0.0000 C   0  0  0  0  0  0  0  0  0  0  0  0
    6.2198   -1.5245    0.0000 N   0  0  0  0  0  0  0  0  0  0  0  0
    7.7138   -1.6590    0.0000 N   0  0  0  0  0  0  0  0  0  0  0  0
    8.0476   -3.1214    0.0000 N   0  0  0  0  0  0  0  0  0  0  0  0
    6.7599   -3.8907    0.0000 N   0  0  0  0  0  0  0  0  0  0  0  0
    6.6254   -5.3847    0.0000 N   0  0  0  0  0  0  0  0  0  0  0  0
    7.7550   -6.3716    0.0000 C   0  0  0  0  0  0  0  0  0  0  0  0
    7.1655   -7.7509    0.0000 C   0  0  0  0  0  0  0  0  0  0  0  0
    5.6715   -7.6164    0.0000 N   0  0  0  0  0  0  0  0  0  0  0  0
    4.6846   -8.7460    0.0000 C   0  0  0  0  0  0  0  0  0  0  0  0
    5.1694  -10.1655    0.0000 O   0  0  0  0  0  0  0  0  0  0  0  0
    3.2129   -8.4561    0.0000 N   0  0  0  0  0  0  0  0  0  0  0  0
    2.2260   -9.5857    0.0000 C   0  0  0  0  0  0  0  0  0  0  0  0
    0.7543   -9.2959    0.0000 N   0  0  0  0  0  0  0  0  0  0  0  0
   -0.2326  -10.4255    0.0000 N   0  0  0  0  0  0  0  0  0  0  0  0
    0.2522  -11.8450    0.0000 N   0  0  0  0  0  0  0  0  0  0  0  0
    1.7239  -12.1348    0.0000 N   0  0  0  0  0  0  0  0  0  0  0  0
    2.7108  -11.0052    0.0000 N   0  0  0  0  0  0  0  0  0  0  0  0
    5.3378   -6.1540    0.0000 C   0  0  0  0  0  0  0  0  0  0  0  0
    3.9585   -5.5645    0.0000 O   0  0  0  0  0  0  0  0  0  0  0  0
    0.7500   -1.2990    0.0000 C   0  0  0  0  0  0  0  0  0  0  0  0
    1.5000    0.0000    0.0000 C   0  0  0  0  0  0  0  0  0  0  0  0
    0.7500    1.2990    0.0000 C   0  0  0  0  0  0  0  0  0  0  0  0
   -0.7500    1.2990    0.0000 C   0  0  0  0  0  0  0  0  0  0  0  0
   -1.5000    0.0000    0.0000 C   0  0  0  0  0  0  0  0  0  0  0  0
   -0.7500   -1.2990    0.0000 C   0  0  0  0  0  0  0  0  0  0  0  0
  1  2  1  0
  2  3  2  0
  3  4  1  0
  4  5  1  0
  5  6  2  0
  6  7  1  0
  7  8  2  0
  7  9  1  0
  9 10  1  0
 10 11  2  0
 11 12  1  0
 12 13  2  0
 13 14  1  0
 14 15  1  0
 15 16  1  0
 16 17  1  0
 17 18  1  0
 18 19  1  0
 19 20  2  0
 19 21  1  0
 21 22  1  0
 22 23  2  0
 23 24  1  0
 24 25  2  0
 25 26  1  0
 26 27  2  0
 18 28  1  0
 28 29  2  0
  6 30  1  0
 30 31  2  0
 31 32  1  0
 32 33  2  0
 33 34  1  0
 34 35  2  0
 35  2  1  0
 14 10  1  0
 28 15  1  0
 35 30  1  0
 27 22  1  0
M  END
>  <Title>  (317) 
idAAKGgen14

$$$$

     RDKit          2D

  9  8  0  0  0  0  0  0  0  0999 V2000
    0.0000    0.0000    0.0000 C   0  0  0  0  0  0  0  0  0  0  0  0
    1.2990    0.7500    0.0000 C   0  0  0  0  0  0  0  0  0  0  0  0
    2.5981   -0.0000    0.0000 C   0  0  0  0  0  0  0  0  0  0  0  0
    3.8971    0.7500    0.0000 C   0  0  0  0  0  0  0  0  0  0  0  0
    5.1962   -0.0000    0.0000 C   0  0  0  0  0  0  0  0  0  0  0  0
    6.4952    0.7500    0.0000 C   0  0  0  0  0  0  0  0  0  0  0  0
    7.7942   -0.0000    0.0000 C   0  0  0  0  0  0  0  0  0  0  0  0
    6.4952    2.2500    0.0000 N   0  0  0  0  0  0  0  0  0  0  0  0
    7.7942    3.0000    0.0000 C   0  0  0  0  0  0  0  0  0  0  0  0
  1  2  1  0
  2  3  2  3
  3  4  1  0
  4  5  1  0
  5  6  1  0
  6  7  1  0
  6  8  1  0
  8  9  1  0
M  END
>  <Title>  (318) 
idAAKHgen14

$$$$

     RDKit          2D

  7  6  0  0  0  0  0  0  0  0999 V2000
    0.0000    0.0000    0.0000 C   0  0  0  0  0  0  0  0  0  0  0  0
    1.2990    0.7500    0.0000 C   0  0  0  0  0  0  0  0  0  0  0  0
    2.5981   -0.0000    0.0000 C   0  0  0  0  0  0  0  0  0  0  0  0
    3.8971    0.7500    0.0000 C   0  0  0  0  0  0  0  0  0  0  0  0
    5.1962   -0.0000    0.0000 C   0  0  0  0  0  0  0  0  0  0  0  0
    6.4952    0.7500    0.0000 C   0  0  0  0  0  0  0  0  0  0  0  0
    7.7942   -0.0000    0.0000 C   0  0  0  0  0  0  0  0  0  0  0  0
  1  2  2  0
  2  3  1  0
  3  4  2  3
  4  5  1  0
  5  6  1  0
  6  7  1  0
M  END
>  <Title>  (319) 
idAAKIgen14

$$$$

     RDKit          2D

 12 11  0  0  0  0  0  0  0  0999 V2000
    0.0000    0.0000    0.0000 C   0  0  0  0  0  0  0  0  0  0  0  0
    1.2990    0.7500    0.0000 C   0  0  0  0  0  0  0  0  0  0  0  0
    2.5981   -0.0000    0.0000 C   0  0  0  0  0  0  0  0  0  0  0  0
    2.5981   -1.5000    0.0000 O   0  0  0  0  0  0  0  0  0  0  0  0
    3.8971    0.7500    0.0000 N   0  0  0  0  0  0  0  0  0  0  0  0
    5.1962   -0.0000    0.0000 C   0  0  0  0  0  0  0  0  0  0  0  0
    6.4952    0.7500    0.0000 C   0  0  0  0  0  0  0  0  0  0  0  0
    7.7942   -0.0000    0.0000 C   0  0  0  0  0  0  0  0  0  0  0  0
    9.0933    0.7500    0.0000 N   0  0  0  0  0  0  0  0  0  0  0  0
   10.3923   -0.0000    0.0000 C   0  0  0  0  0  0  0  0  0  0  0  0
   11.6913    0.7500    0.0000 C   0  0  0  0  0  0  0  0  0  0  0  0
   10.3923   -1.5000    0.0000 C   0  0  0  0  0  0  0  0  0  0  0  0
  1  2  1  0
  2  3  1  0
  3  4  2  0
  3  5  1  0
  5  6  1  0
  6  7  1  0
  7  8  2  3
  8  9  1  0
  9 10  1  0
 10 11  1  0
 10 12  1  0
M  END
>  <Title>  (320) 
idAAKJgen14

$$$$

     RDKit          2D

 34 38  0  0  0  0  0  0  0  0999 V2000
   -2.6401   -3.1891    0.0000 C   0  0  0  0  0  0  0  0  0  0  0  0
   -1.2135   -2.7256    0.0000 C   0  0  0  0  0  0  0  0  0  0  0  0
   -0.0000   -3.6073    0.0000 C   0  0  0  0  0  0  0  0  0  0  0  0
    1.2135   -2.7256    0.0000 C   0  0  0  0  0  0  0  0  0  0  0  0
    2.6401   -3.1891    0.0000 C   0  0  0  0  0  0  0  0  0  0  0  0
    3.7548   -2.1855    0.0000 O   0  0  0  0  0  0  0  0  0  0  0  0
    2.9520   -4.6564    0.0000 N   0  0  0  0  0  0  0  0  0  0  0  0
    4.3786   -5.1199    0.0000 C   0  0  0  0  0  0  0  0  0  0  0  0
    5.5921   -4.2382    0.0000 N   0  0  0  0  0  0  0  0  0  0  0  0
    6.8056   -5.1199    0.0000 N   0  0  0  0  0  0  0  0  0  0  0  0
    6.3421   -6.5465    0.0000 N   0  0  0  0  0  0  0  0  0  0  0  0
    4.8421   -6.5465    0.0000 N   0  0  0  0  0  0  0  0  0  0  0  0
    3.9604   -7.7600    0.0000 C   0  0  0  0  0  0  0  0  0  0  0  0
    4.4239   -9.1866    0.0000 C   0  0  0  0  0  0  0  0  0  0  0  0
    3.2104  -10.0683    0.0000 C   0  0  0  0  0  0  0  0  0  0  0  0
    1.9969   -9.1866    0.0000 C   0  0  0  0  0  0  0  0  0  0  0  0
    0.5703   -9.6501    0.0000 O   0  0  0  0  0  0  0  0  0  0  0  0
   -0.5444   -8.6464    0.0000 C   0  0  0  0  0  0  0  0  0  0  0  0
   -0.2325   -7.1792    0.0000 O   0  0  0  0  0  0  0  0  0  0  0  0
   -1.9710   -9.1099    0.0000 N   0  0  0  0  0  0  0  0  0  0  0  0
   -3.0857   -8.1062    0.0000 C   0  0  0  0  0  0  0  0  0  0  0  0
   -2.7739   -6.6390    0.0000 N   0  0  0  0  0  0  0  0  0  0  0  0
   -3.8886   -5.6353    0.0000 N   0  0  0  0  0  0  0  0  0  0  0  0
   -5.3152   -6.0989    0.0000 N   0  0  0  0  0  0  0  0  0  0  0  0
   -5.6270   -7.5661    0.0000 N   0  0  0  0  0  0  0  0  0  0  0  0
   -4.5123   -8.5698    0.0000 N   0  0  0  0  0  0  0  0  0  0  0  0
    2.4604   -7.7600    0.0000 C   0  0  0  0  0  0  0  0  0  0  0  0
    1.5787   -6.5465    0.0000 O   0  0  0  0  0  0  0  0  0  0  0  0
    0.7500   -1.2990    0.0000 C   0  0  0  0  0  0  0  0  0  0  0  0
    1.5000    0.0000    0.0000 C   0  0  0  0  0  0  0  0  0  0  0  0
    0.7500    1.2990    0.0000 C   0  0  0  0  0  0  0  0  0  0  0  0
   -0.7500    1.2990    0.0000 C   0  0  0  0  0  0  0  0  0  0  0  0
   -1.5000    0.0000    0.0000 C   0  0  0  0  0  0  0  0  0  0  0  0
   -0.7500   -1.2990    0.0000 C   0  0  0  0  0  0  0  0  0  0  0  0
  1  2  1  0
  2  3  2  0
  3  4  1  0
  4  5  1  0
  5  6  2  0
  5  7  1  0
  7  8  1  0
  8  9  2  0
  9 10  1  0
 10 11  2  0
 11 12  1  0
 12 13  1  0
 13 14  2  0
 14 15  1  0
 15 16  2  0
 16 17  1  0
 17 18  1  0
 18 19  2  0
 18 20  1  0
 20 21  1  0
 21 22  2  0
 22 23  1  0
 23 24  2  0
 24 25  1  0
 25 26  2  0
 16 27  1  0
 27 28  2  0
  4 29  1  0
 29 30  2  0
 30 31  1  0
 31 32  2  0
 32 33  1  0
 33 34  2  0
 34  2  1  0
 12  8  1  0
 27 13  1  0
 34 29  1  0
 26 21  1  0
M  END
>  <Title>  (321) 
idAAKKgen14

$$$$

     RDKit          2D

 34 38  0  0  0  0  0  0  0  0999 V2000
   -3.0000   -2.5981    0.0000 C   0  0  0  0  0  0  0  0  0  0  0  0
   -1.5000   -2.5981    0.0000 C   0  0  0  0  0  0  0  0  0  0  0  0
   -0.7500   -3.8971    0.0000 C   0  0  0  0  0  0  0  0  0  0  0  0
    0.7500   -3.8971    0.0000 C   0  0  0  0  0  0  0  0  0  0  0  0
    1.5000   -2.5981    0.0000 C   0  0  0  0  0  0  0  0  0  0  0  0
    3.0000   -2.5981    0.0000 C   0  0  0  0  0  0  0  0  0  0  0  0
    3.7500   -1.2990    0.0000 O   0  0  0  0  0  0  0  0  0  0  0  0
    3.7500   -3.8971    0.0000 N   0  0  0  0  0  0  0  0  0  0  0  0
    5.2500   -3.8971    0.0000 C   0  0  0  0  0  0  0  0  0  0  0  0
    6.1317   -2.6836    0.0000 N   0  0  0  0  0  0  0  0  0  0  0  0
    7.5583   -3.1471    0.0000 N   0  0  0  0  0  0  0  0  0  0  0  0
    7.5583   -4.6471    0.0000 N   0  0  0  0  0  0  0  0  0  0  0  0
    6.1317   -5.1106    0.0000 N   0  0  0  0  0  0  0  0  0  0  0  0
    5.6682   -6.5372    0.0000 C   0  0  0  0  0  0  0  0  0  0  0  0
    6.5498   -7.7508    0.0000 C   0  0  0  0  0  0  0  0  0  0  0  0
    5.6682   -8.9643    0.0000 C   0  0  0  0  0  0  0  0  0  0  0  0
    4.2416   -8.5008    0.0000 C   0  0  0  0  0  0  0  0  0  0  0  0
    3.0280   -9.3824    0.0000 C   0  0  0  0  0  0  0  0  0  0  0  0
    3.1848  -10.8742    0.0000 O   0  0  0  0  0  0  0  0  0  0  0  0
    1.6577   -8.7723    0.0000 N   0  0  0  0  0  0  0  0  0  0  0  0
    0.4442   -9.6540    0.0000 C   0  0  0  0  0  0  0  0  0  0  0  0
   -0.9261   -9.0439    0.0000 N   0  0  0  0  0  0  0  0  0  0  0  0
   -2.1396   -9.9256    0.0000 N   0  0  0  0  0  0  0  0  0  0  0  0
   -1.9829  -11.4174    0.0000 N   0  0  0  0  0  0  0  0  0  0  0  0
   -0.6125  -12.0275    0.0000 N   0  0  0  0  0  0  0  0  0  0  0  0
    0.6010  -11.1458    0.0000 N   0  0  0  0  0  0  0  0  0  0  0  0
    4.2416   -7.0008    0.0000 C   0  0  0  0  0  0  0  0  0  0  0  0
    3.0280   -6.1191    0.0000 O   0  0  0  0  0  0  0  0  0  0  0  0
    0.7500   -1.2990    0.0000 C   0  0  0  0  0  0  0  0  0  0  0  0
    1.5000    0.0000    0.0000 C   0  0  0  0  0  0  0  0  0  0  0  0
    0.7500    1.2990    0.0000 C   0  0  0  0  0  0  0  0  0  0  0  0
   -0.7500    1.2990    0.0000 C   0  0  0  0  0  0  0  0  0  0  0  0
   -1.5000    0.0000    0.0000 C   0  0  0  0  0  0  0  0  0  0  0  0
   -0.7500   -1.2990    0.0000 C   0  0  0  0  0  0  0  0  0  0  0  0
  1  2  1  0
  2  3  2  0
  3  4  1  0
  4  5  2  0
  5  6  1  0
  6  7  2  0
  6  8  1  0
  8  9  1  0
  9 10  2  0
 10 11  1  0
 11 12  2  0
 12 13  1  0
 13 14  1  0
 14 15  2  0
 15 16  1  0
 16 17  2  0
 17 18  1  0
 18 19  2  0
 18 20  1  0
 20 21  1  0
 21 22  2  0
 22 23  1  0
 23 24  2  0
 24 25  1  0
 25 26  2  0
 17 27  1  0
 27 28  2  0
  5 29  1  0
 29 30  2  0
 30 31  1  0
 31 32  2  0
 32 33  1  0
 33 34  2  0
 34  2  1  0
 13  9  1  0
 27 14  1  0
 34 29  1  0
 26 21  1  0
M  END
>  <Title>  (322) 
idAAKLgen14

$$$$

     RDKit          2D

  9  9  0  0  0  0  0  0  0  0999 V2000
    5.0260   -1.2990    0.0000 C   0  0  0  0  0  0  0  0  0  0  0  0
    3.5260   -1.2990    0.0000 C   0  0  0  0  0  0  0  0  0  0  0  0
    2.7760   -2.5981    0.0000 C   0  0  0  0  0  0  0  0  0  0  0  0
    2.7760    0.0000    0.0000 C   0  0  0  0  0  0  0  0  0  0  0  0
    1.2760    0.0000    0.0000 C   0  0  0  0  0  0  0  0  0  0  0  0
    0.3943    1.2135    0.0000 C   0  0  0  0  0  0  0  0  0  0  0  0
   -1.0323    0.7500    0.0000 N   0  0  0  0  0  0  0  0  0  0  0  0
   -1.0323   -0.7500    0.0000 C   0  0  0  0  0  0  0  0  0  0  0  0
    0.3943   -1.2135    0.0000 N   0  0  0  0  0  0  0  0  0  0  0  0
  1  2  1  0
  2  3  1  0
  2  4  1  0
  4  5  1  0
  5  6  2  0
  6  7  1  0
  7  8  1  0
  8  9  2  0
  9  5  1  0
M  END
>  <Title>  (323) 
idAAKMgen14

$$$$

     RDKit          2D

 49 55  0  0  0  0  0  0  0  0999 V2000
   -2.6473   -6.7434    0.0000 C   0  0  0  0  0  0  0  0  0  0  0  0
   -3.8739   -7.6068    0.0000 C   0  0  0  0  0  0  0  0  0  0  0  0
   -3.7394   -9.1008    0.0000 C   0  0  0  0  0  0  0  0  0  0  0  0
   -4.9660   -9.9642    0.0000 C   0  0  0  0  0  0  0  0  0  0  0  0
   -6.3270   -9.3336    0.0000 C   0  0  0  0  0  0  0  0  0  0  0  0
   -6.4615   -7.8397    0.0000 C   0  0  0  0  0  0  0  0  0  0  0  0
   -5.2349   -6.9763    0.0000 C   0  0  0  0  0  0  0  0  0  0  0  0
   -5.3694   -5.4823    0.0000 C   0  0  0  0  0  0  0  0  0  0  0  0
   -6.7304   -4.8518    0.0000 O   0  0  0  0  0  0  0  0  0  0  0  0
   -4.1428   -4.6189    0.0000 N   0  0  0  0  0  0  0  0  0  0  0  0
   -4.2772   -3.1249    0.0000 C   0  0  0  0  0  0  0  0  0  0  0  0
   -5.5649   -2.3556    0.0000 N   0  0  0  0  0  0  0  0  0  0  0  0
   -5.2311   -0.8932    0.0000 N   0  0  0  0  0  0  0  0  0  0  0  0
   -3.7372   -0.7587    0.0000 N   0  0  0  0  0  0  0  0  0  0  0  0
   -3.1476   -2.1380    0.0000 N   0  0  0  0  0  0  0  0  0  0  0  0
   -1.6852   -2.4718    0.0000 C   0  0  0  0  0  0  0  0  0  0  0  0
   -1.3515   -3.9342    0.0000 C   0  0  0  0  0  0  0  0  0  0  0  0
   -0.0000   -4.5850    0.0000 C   0  0  0  0  0  0  0  0  0  0  0  0
    1.3515   -3.9342    0.0000 C   0  0  0  0  0  0  0  0  0  0  0  0
    1.6852   -2.4718    0.0000 C   0  0  0  0  0  0  0  0  0  0  0  0
    3.1476   -2.1380    0.0000 C   0  0  0  0  0  0  0  0  0  0  0  0
    3.5898   -0.7046    0.0000 O   0  0  0  0  0  0  0  0  0  0  0  0
    4.1679   -3.2376    0.0000 N   0  0  0  0  0  0  0  0  0  0  0  0
    5.6303   -2.9038    0.0000 C   0  0  0  0  0  0  0  0  0  0  0  0
    6.2198   -1.5245    0.0000 N   0  0  0  0  0  0  0  0  0  0  0  0
    7.7138   -1.6590    0.0000 N   0  0  0  0  0  0  0  0  0  0  0  0
    8.0476   -3.1214    0.0000 N   0  0  0  0  0  0  0  0  0  0  0  0
    6.7599   -3.8907    0.0000 N   0  0  0  0  0  0  0  0  0  0  0  0
    6.6254   -5.3847    0.0000 N   0  0  0  0  0  0  0  0  0  0  0  0
    7.7550   -6.3716    0.0000 C   0  0  0  0  0  0  0  0  0  0  0  0
    7.1655   -7.7509    0.0000 C   0  0  0  0  0  0  0  0  0  0  0  0
    5.6715   -7.6164    0.0000 N   0  0  0  0  0  0  0  0  0  0  0  0
    4.6846   -8.7460    0.0000 C   0  0  0  0  0  0  0  0  0  0  0  0
    5.1694  -10.1655    0.0000 O   0  0  0  0  0  0  0  0  0  0  0  0
    3.2129   -8.4561    0.0000 N   0  0  0  0  0  0  0  0  0  0  0  0
    2.2260   -9.5857    0.0000 C   0  0  0  0  0  0  0  0  0  0  0  0
    0.7543   -9.2959    0.0000 N   0  0  0  0  0  0  0  0  0  0  0  0
   -0.2326  -10.4255    0.0000 N   0  0  0  0  0  0  0  0  0  0  0  0
    0.2522  -11.8450    0.0000 N   0  0  0  0  0  0  0  0  0  0  0  0
    1.7239  -12.1348    0.0000 N   0  0  0  0  0  0  0  0  0  0  0  0
    2.7108  -11.0052    0.0000 N   0  0  0  0  0  0  0  0  0  0  0  0
    5.3378   -6.1540    0.0000 C   0  0  0  0  0  0  0  0  0  0  0  0
    3.9585   -5.5645    0.0000 O   0  0  0  0  0  0  0  0  0  0  0  0
    0.7500   -1.2990    0.0000 C   0  0  0  0  0  0  0  0  0  0  0  0
    1.5000    0.0000    0.0000 C   0  0  0  0  0  0  0  0  0  0  0  0
    0.7500    1.2990    0.0000 C   0  0  0  0  0  0  0  0  0  0  0  0
   -0.7500    1.2990    0.0000 C   0  0  0  0  0  0  0  0  0  0  0  0
   -1.5000    0.0000    0.0000 C   0  0  0  0  0  0  0  0  0  0  0  0
   -0.7500   -1.2990    0.0000 C   0  0  0  0  0  0  0  0  0  0  0  0
  1  2  1  0
  2  3  1  0
  3  4  1  0
  4  5  1  0
  5  6  1  0
  6  7  1  0
  7  8  1  0
  8  9  2  0
  8 10  1  0
 10 11  1  0
 11 12  2  0
 12 13  1  0
 13 14  2  0
 14 15  1  0
 15 16  1  0
 16 17  2  0
 17 18  1  0
 18 19  2  0
 19 20  1  0
 20 21  1  0
 21 22  2  0
 21 23  1  0
 23 24  1  0
 24 25  2  0
 25 26  1  0
 26 27  2  0
 27 28  1  0
 28 29  1  0
 29 30  1  0
 30 31  1  0
 31 32  1  0
 32 33  1  0
 33 34  2  0
 33 35  1  0
 35 36  1  0
 36 37  2  0
 37 38  1  0
 38 39  2  0
 39 40  1  0
 40 41  2  0
 32 42  1  0
 42 43  2  0
 20 44  1  0
 44 45  2  0
 45 46  1  0
 46 47  2  0
 47 48  1  0
 48 49  2  0
  7  2  1  0
 15 11  1  0
 49 16  1  0
 28 24  1  0
 42 29  1  0
 49 44  1  0
 41 36  1  0
M  END
>  <Title>  (324) 
idAAKNgen14

$$$$

     RDKit          2D

  8  8  0  0  0  0  0  0  0  0999 V2000
    3.7500   -1.2990    0.0000 C   0  0  0  0  0  0  0  0  0  0  0  0
    3.0000    0.0000    0.0000 C   0  0  0  0  0  0  0  0  0  0  0  0
    1.5000    0.0000    0.0000 C   0  0  0  0  0  0  0  0  0  0  0  0
    0.7500   -1.2990    0.0000 C   0  0  0  0  0  0  0  0  0  0  0  0
   -0.7500   -1.2990    0.0000 C   0  0  0  0  0  0  0  0  0  0  0  0
   -1.5000    0.0000    0.0000 C   0  0  0  0  0  0  0  0  0  0  0  0
   -0.7500    1.2990    0.0000 C   0  0  0  0  0  0  0  0  0  0  0  0
    0.7500    1.2990    0.0000 C   0  0  0  0  0  0  0  0  0  0  0  0
  1  2  1  0
  2  3  1  0
  3  4  2  0
  4  5  1  0
  5  6  2  0
  6  7  1  0
  7  8  2  0
  8  3  1  0
M  END
>  <Title>  (325) 
idAAKOgen14

$$$$

     RDKit          2D

 14 14  0  0  0  0  0  0  0  0999 V2000
    8.2500   -3.8971    0.0000 C   0  0  0  0  0  0  0  0  0  0  0  0
    7.5000   -2.5981    0.0000 C   0  0  0  0  0  0  0  0  0  0  0  0
    8.2500   -1.2990    0.0000 C   0  0  0  0  0  0  0  0  0  0  0  0
    6.0000   -2.5981    0.0000 N   0  0  0  0  0  0  0  0  0  0  0  0
    5.2500   -1.2990    0.0000 C   0  0  0  0  0  0  0  0  0  0  0  0
    6.0000    0.0000    0.0000 O   0  0  0  0  0  0  0  0  0  0  0  0
    3.7500   -1.2990    0.0000 N   0  0  0  0  0  0  0  0  0  0  0  0
    3.0000    0.0000    0.0000 C   0  0  0  0  0  0  0  0  0  0  0  0
    1.5000    0.0000    0.0000 C   0  0  0  0  0  0  0  0  0  0  0  0
    0.7500   -1.2990    0.0000 C   0  0  0  0  0  0  0  0  0  0  0  0
   -0.7500   -1.2990    0.0000 C   0  0  0  0  0  0  0  0  0  0  0  0
   -1.5000    0.0000    0.0000 C   0  0  0  0  0  0  0  0  0  0  0  0
   -0.7500    1.2990    0.0000 C   0  0  0  0  0  0  0  0  0  0  0  0
    0.7500    1.2990    0.0000 N   0  0  0  0  0  0  0  0  0  0  0  0
  1  2  1  0
  2  3  1  0
  2  4  1  0
  4  5  1  0
  5  6  2  0
  5  7  1  0
  7  8  1  0
  8  9  1  0
  9 10  2  0
 10 11  1  0
 11 12  1  0
 12 13  1  0
 13 14  2  0
 14  9  1  0
M  END
>  <Title>  (326) 
idAAKPgen14

$$$$

     RDKit          2D

  7  7  0  0  0  0  0  0  0  0999 V2000
    3.0000    0.0000    0.0000 O   0  0  0  0  0  0  0  0  0  0  0  0
    1.5000    0.0000    0.0000 C   0  0  0  0  0  0  0  0  0  0  0  0
    0.7500   -1.2990    0.0000 C   0  0  0  0  0  0  0  0  0  0  0  0
   -0.7500   -1.2990    0.0000 C   0  0  0  0  0  0  0  0  0  0  0  0
   -1.5000    0.0000    0.0000 C   0  0  0  0  0  0  0  0  0  0  0  0
   -0.7500    1.2990    0.0000 N   0  0  0  0  0  0  0  0  0  0  0  0
    0.7500    1.2990    0.0000 N   0  0  0  0  0  0  0  0  0  0  0  0
  1  2  1  0
  2  3  1  0
  3  4  1  0
  4  5  1  0
  5  6  1  0
  6  7  2  0
  7  2  1  0
M  END
>  <Title>  (327) 
idAAKQgen14

$$$$

     RDKit          2D

 11 10  0  0  0  0  0  0  0  0999 V2000
    0.0000    0.0000    0.0000 C   0  0  0  0  0  0  0  0  0  0  0  0
    1.2990    0.7500    0.0000 C   0  0  0  0  0  0  0  0  0  0  0  0
    2.5981   -0.0000    0.0000 C   0  0  0  0  0  0  0  0  0  0  0  0
    3.8971    0.7500    0.0000 C   0  0  0  0  0  0  0  0  0  0  0  0
    3.8971    2.2500    0.0000 O   0  0  0  0  0  0  0  0  0  0  0  0
    5.1962   -0.0000    0.0000 N   0  0  0  0  0  0  0  0  0  0  0  0
    6.4952    0.7500    0.0000 C   0  0  0  0  0  0  0  0  0  0  0  0
    7.7942   -0.0000    0.0000 C   0  0  0  0  0  0  0  0  0  0  0  0
    9.0933    0.7500    0.0000 C   0  0  0  0  0  0  0  0  0  0  0  0
   10.3923   -0.0000    0.0000 C   0  0  0  0  0  0  0  0  0  0  0  0
    9.0933    2.2500    0.0000 C   0  0  0  0  0  0  0  0  0  0  0  0
  1  2  1  0
  2  3  1  0
  3  4  1  0
  4  5  2  0
  4  6  1  0
  6  7  1  0
  7  8  1  0
  8  9  1  0
  9 10  1  0
  9 11  1  0
M  END
>  <Title>  (328) 
idAAKRgen14

$$$$

     RDKit          2D

 15 15  0  0  0  0  0  0  0  0999 V2000
    9.7500   -1.2990    0.0000 C   0  0  0  0  0  0  0  0  0  0  0  0
    8.2500   -1.2990    0.0000 C   0  0  0  0  0  0  0  0  0  0  0  0
    7.5000   -2.5981    0.0000 C   0  0  0  0  0  0  0  0  0  0  0  0
    8.2500   -3.8971    0.0000 C   0  0  0  0  0  0  0  0  0  0  0  0
    6.0000   -2.5981    0.0000 C   0  0  0  0  0  0  0  0  0  0  0  0
    5.2500   -1.2990    0.0000 C   0  0  0  0  0  0  0  0  0  0  0  0
    6.0000    0.0000    0.0000 O   0  0  0  0  0  0  0  0  0  0  0  0
    3.7500   -1.2990    0.0000 N   0  0  0  0  0  0  0  0  0  0  0  0
    3.0000    0.0000    0.0000 C   0  0  0  0  0  0  0  0  0  0  0  0
    1.5000    0.0000    0.0000 C   0  0  0  0  0  0  0  0  0  0  0  0
    0.7500   -1.2990    0.0000 C   0  0  0  0  0  0  0  0  0  0  0  0
   -0.7500   -1.2990    0.0000 C   0  0  0  0  0  0  0  0  0  0  0  0
   -1.5000    0.0000    0.0000 C   0  0  0  0  0  0  0  0  0  0  0  0
   -0.7500    1.2990    0.0000 N   0  0  0  0  0  0  0  0  0  0  0  0
    0.7500    1.2990    0.0000 C   0  0  0  0  0  0  0  0  0  0  0  0
  1  2  1  0
  2  3  1  0
  3  4  1  0
  3  5  1  0
  5  6  1  0
  6  7  2  0
  6  8  1  0
  8  9  1  0
  9 10  1  0
 10 11  2  0
 11 12  1  0
 12 13  2  0
 13 14  1  0
 14 15  2  0
 15 10  1  0
M  END
>  <Title>  (329) 
idAAKSgen14

$$$$

     RDKit          2D

 17 17  0  0  0  0  0  0  0  0999 V2000
    8.2500   -6.4952    0.0000 C   0  0  0  0  0  0  0  0  0  0  0  0
    7.5000   -5.1962    0.0000 C   0  0  0  0  0  0  0  0  0  0  0  0
    6.0000   -5.1962    0.0000 C   0  0  0  0  0  0  0  0  0  0  0  0
    5.2500   -6.4952    0.0000 C   0  0  0  0  0  0  0  0  0  0  0  0
    5.2500   -3.8971    0.0000 C   0  0  0  0  0  0  0  0  0  0  0  0
    6.0000   -2.5981    0.0000 C   0  0  0  0  0  0  0  0  0  0  0  0
    7.5000   -2.5981    0.0000 C   0  0  0  0  0  0  0  0  0  0  0  0
    5.2500   -1.2990    0.0000 N   0  0  0  0  0  0  0  0  0  0  0  0
    3.7500   -1.2990    0.0000 C   0  0  0  0  0  0  0  0  0  0  0  0
    3.0000   -2.5981    0.0000 O   0  0  0  0  0  0  0  0  0  0  0  0
    3.0000    0.0000    0.0000 C   0  0  0  0  0  0  0  0  0  0  0  0
    1.5000    0.0000    0.0000 C   0  0  0  0  0  0  0  0  0  0  0  0
    0.7500   -1.2990    0.0000 C   0  0  0  0  0  0  0  0  0  0  0  0
   -0.7500   -1.2990    0.0000 S   0  0  0  0  0  0  0  0  0  0  0  0
   -1.5000    0.0000    0.0000 C   0  0  0  0  0  0  0  0  0  0  0  0
   -0.7500    1.2990    0.0000 C   0  0  0  0  0  0  0  0  0  0  0  0
    0.7500    1.2990    0.0000 C   0  0  0  0  0  0  0  0  0  0  0  0
  1  2  1  0
  2  3  1  0
  3  4  1  0
  3  5  1  0
  5  6  1  0
  6  7  1  0
  6  8  1  0
  8  9  1  0
  9 10  2  0
  9 11  1  0
 11 12  1  0
 12 13  2  0
 13 14  1  0
 14 15  1  0
 15 16  1  0
 16 17  1  0
 17 12  1  0
M  END
>  <Title>  (330) 
idAAKTgen14

$$$$

     RDKit          2D

 82 83  0  0  0  0  0  0  0  0999 V2000
    2.5779   -3.9637    0.0000 C   0  0  0  0  0  0  0  0  0  0  0  0
    3.3342   -4.2157    0.0000 C   0  0  0  0  0  0  0  0  0  0  0  0
    2.9315   -5.6607    0.0000 C   0  0  0  0  0  0  0  0  0  0  0  0
    2.6747   -7.1385    0.0000 C   0  0  0  0  0  0  0  0  0  0  0  0
    2.5664   -8.6346    0.0000 C   0  0  0  0  0  0  0  0  0  0  0  0
    2.6075  -10.1340    0.0000 C   0  0  0  0  0  0  0  0  0  0  0  0
    2.7977  -11.6219    0.0000 C   0  0  0  0  0  0  0  0  0  0  0  0
    3.1351  -13.0835    0.0000 C   0  0  0  0  0  0  0  0  0  0  0  0
    3.6164  -14.5042    0.0000 C   0  0  0  0  0  0  0  0  0  0  0  0
    4.2368  -15.8699    0.0000 C   0  0  0  0  0  0  0  0  0  0  0  0
    4.9900  -17.1671    0.0000 C   0  0  0  0  0  0  0  0  0  0  0  0
    5.8686  -18.3828    0.0000 C   0  0  0  0  0  0  0  0  0  0  0  0
    6.8640  -19.5050    0.0000 C   0  0  0  0  0  0  0  0  0  0  0  0
    7.9661  -20.5225    0.0000 C   0  0  0  0  0  0  0  0  0  0  0  0
    9.1640  -21.4252    0.0000 C   0  0  0  0  0  0  0  0  0  0  0  0
   10.4459  -22.2042    0.0000 C   0  0  0  0  0  0  0  0  0  0  0  0
   11.7990  -22.8516    0.0000 C   0  0  0  0  0  0  0  0  0  0  0  0
   13.2098  -23.3611    0.0000 C   0  0  0  0  0  0  0  0  0  0  0  0
   14.6643  -23.7276    0.0000 C   0  0  0  0  0  0  0  0  0  0  0  0
   16.1481  -23.9475    0.0000 C   0  0  0  0  0  0  0  0  0  0  0  0
   17.6465  -24.0185    0.0000 C   0  0  0  0  0  0  0  0  0  0  0  0
   19.1444  -23.9400    0.0000 C   0  0  0  0  0  0  0  0  0  0  0  0
   20.6271  -23.7128    0.0000 C   0  0  0  0  0  0  0  0  0  0  0  0
   22.0798  -23.3390    0.0000 C   0  0  0  0  0  0  0  0  0  0  0  0
   23.4880  -22.8225    0.0000 C   0  0  0  0  0  0  0  0  0  0  0  0
   24.8379  -22.1683    0.0000 C   0  0  0  0  0  0  0  0  0  0  0  0
   26.1158  -21.3829    0.0000 C   0  0  0  0  0  0  0  0  0  0  0  0
   27.3093  -20.4743    0.0000 C   0  0  0  0  0  0  0  0  0  0  0  0
   28.4063  -19.4513    0.0000 C   0  0  0  0  0  0  0  0  0  0  0  0
   29.3960  -18.3241    0.0000 C   0  0  0  0  0  0  0  0  0  0  0  0
   30.2686  -17.1040    0.0000 C   0  0  0  0  0  0  0  0  0  0  0  0
   31.0154  -15.8031    0.0000 C   0  0  0  0  0  0  0  0  0  0  0  0
   31.6289  -14.4343    0.0000 C   0  0  0  0  0  0  0  0  0  0  0  0
   32.1031  -13.0113    0.0000 C   0  0  0  0  0  0  0  0  0  0  0  0
   32.4332  -11.5480    0.0000 C   0  0  0  0  0  0  0  0  0  0  0  0
   32.6160  -10.0592    0.0000 C   0  0  0  0  0  0  0  0  0  0  0  0
   32.6497   -8.5596    0.0000 C   0  0  0  0  0  0  0  0  0  0  0  0
   32.5338   -7.0641    0.0000 C   0  0  0  0  0  0  0  0  0  0  0  0
   32.2697   -5.5875    0.0000 C   0  0  0  0  0  0  0  0  0  0  0  0
   31.8598   -4.1446    0.0000 C   0  0  0  0  0  0  0  0  0  0  0  0
   31.3083   -2.7497    0.0000 C   0  0  0  0  0  0  0  0  0  0  0  0
   30.6207   -1.4166    0.0000 C   0  0  0  0  0  0  0  0  0  0  0  0
   29.8037   -0.1585    0.0000 C   0  0  0  0  0  0  0  0  0  0  0  0
   28.8656    1.0119    0.0000 C   0  0  0  0  0  0  0  0  0  0  0  0
   27.8156    2.0830    0.0000 C   0  0  0  0  0  0  0  0  0  0  0  0
   26.6641    3.0444    0.0000 C   0  0  0  0  0  0  0  0  0  0  0  0
   25.4226    3.8863    0.0000 C   0  0  0  0  0  0  0  0  0  0  0  0
   24.1035    4.6003    0.0000 C   0  0  0  0  0  0  0  0  0  0  0  0
   22.7198    5.1795    0.0000 C   0  0  0  0  0  0  0  0  0  0  0  0
   21.2854    5.6181    0.0000 C   0  0  0  0  0  0  0  0  0  0  0  0
   19.8144    5.9117    0.0000 C   0  0  0  0  0  0  0  0  0  0  0  0
   18.3215    6.0573    0.0000 C   0  0  0  0  0  0  0  0  0  0  0  0
   16.8215    6.0535    0.0000 C   0  0  0  0  0  0  0  0  0  0  0  0
   15.3293    5.9005    0.0000 C   0  0  0  0  0  0  0  0  0  0  0  0
   13.8598    5.5996    0.0000 C   0  0  0  0  0  0  0  0  0  0  0  0
   12.4275    5.1539    0.0000 C   0  0  0  0  0  0  0  0  0  0  0  0
   11.0468    4.5678    0.0000 C   0  0  0  0  0  0  0  0  0  0  0  0
    9.7313    3.8471    0.0000 C   0  0  0  0  0  0  0  0  0  0  0  0
    8.4940    2.9991    0.0000 C   0  0  0  0  0  0  0  0  0  0  0  0
    7.3473    2.0320    0.0000 C   0  0  0  0  0  0  0  0  0  0  0  0
    6.3027    0.9556    0.0000 C   0  0  0  0  0  0  0  0  0  0  0  0
    5.3704   -0.2195    0.0000 C   0  0  0  0  0  0  0  0  0  0  0  0
    4.5597   -1.4815    0.0000 C   0  0  0  0  0  0  0  0  0  0  0  0
    4.0943   -0.0000    0.0000 C   0  0  0  0  0  0  0  0  0  0  0  0
    3.8939    1.2652    0.0000 C   0  0  0  0  0  0  0  0  0  0  0  0
    3.3124    2.4066    0.0000 C   0  0  0  0  0  0  0  0  0  0  0  0
    2.4066    3.3124    0.0000 C   0  0  0  0  0  0  0  0  0  0  0  0
    1.2652    3.8939    0.0000 C   0  0  0  0  0  0  0  0  0  0  0  0
    0.0000    4.0943    0.0000 C   0  0  0  0  0  0  0  0  0  0  0  0
   -1.2652    3.8939    0.0000 C   0  0  0  0  0  0  0  0  0  0  0  0
   -2.4066    3.3124    0.0000 C   0  0  0  0  0  0  0  0  0  0  0  0
   -3.3124    2.4066    0.0000 C   0  0  0  0  0  0  0  0  0  0  0  0
   -3.8939    1.2652    0.0000 C   0  0  0  0  0  0  0  0  0  0  0  0
   -4.0943    0.0000    0.0000 C   0  0  0  0  0  0  0  0  0  0  0  0
   -3.8939   -1.2652    0.0000 C   0  0  0  0  0  0  0  0  0  0  0  0
   -3.3124   -2.4066    0.0000 C   0  0  0  0  0  0  0  0  0  0  0  0
   -2.4066   -3.3124    0.0000 C   0  0  0  0  0  0  0  0  0  0  0  0
   -1.2652   -3.8939    0.0000 C   0  0  0  0  0  0  0  0  0  0  0  0
   -0.0000   -4.0943    0.0000 C   0  0  0  0  0  0  0  0  0  0  0  0
    1.2652   -3.8939    0.0000 C   0  0  0  0  0  0  0  0  0  0  0  0
    2.4066   -3.3124    0.0000 C   0  0  0  0  0  0  0  0  0  0  0  0
    3.8787   -2.8180    0.0000 C   0  0  0  0  0  0  0  0  0  0  0  0
  1  2  1  0
  2  3  1  0
  3  4  1  0
  4  5  1  0
  5  6  1  0
  6  7  1  0
  7  8  1  0
  8  9  1  0
  9 10  1  0
 10 11  1  0
 11 12  1  0
 12 13  1  0
 13 14  1  0
 14 15  1  0
 15 16  1  0
 16 17  1  0
 17 18  1  0
 18 19  1  0
 19 20  1  0
 20 21  1  0
 21 22  1  0
 22 23  1  0
 23 24  1  0
 24 25  1  0
 25 26  1  0
 26 27  1  0
 27 28  1  0
 28 29  1  0
 29 30  1  0
 30 31  1  0
 31 32  1  0
 32 33  1  0
 33 34  1  0
 34 35  1  0
 35 36  1  0
 36 37  1  0
 37 38  1  0
 38 39  1  0
 39 40  1  0
 40 41  1  0
 41 42  1  0
 42 43  1  0
 43 44  1  0
 44 45  1  0
 45 46  1  0
 46 47  1  0
 47 48  1  0
 48 49  1  0
 49 50  1  0
 50 51  1  0
 51 52  1  0
 52 53  1  0
 53 54  1  0
 54 55  1  0
 55 56  1  0
 56 57  1  0
 57 58  1  0
 58 59  1  0
 59 60  1  0
 60 61  1  0
 61 62  1  0
 62 63  1  0
 63 64  1  0
 64 65  1  0
 65 66  1  0
 66 67  1  0
 67 68  1  0
 68 69  1  0
 69 70  2  0
 70 71  1  0
 71 72  2  0
 72 73  1  0
 73 74  2  0
 74 75  1  0
 75 76  2  0
 76 77  1  0
 77 78  2  0
 78 79  1  0
 79 80  2  0
 80 81  1  0
 81 82  2  0
 82  2  1  0
 82 63  1  0
M  END
>  <Title>  (331) 
idAAKUgen14

$$$$

     RDKit          2D

 23 25  0  0  0  0  0  0  0  0999 V2000
    9.1375    4.9736    0.0000 C   0  0  0  0  0  0  0  0  0  0  0  0
    8.9807    3.4818    0.0000 C   0  0  0  0  0  0  0  0  0  0  0  0
    7.6104    2.8717    0.0000 C   0  0  0  0  0  0  0  0  0  0  0  0
    7.4536    1.3799    0.0000 C   0  0  0  0  0  0  0  0  0  0  0  0
    6.1545    0.6299    0.0000 C   0  0  0  0  0  0  0  0  0  0  0  0
    6.4664   -0.8373    0.0000 C   0  0  0  0  0  0  0  0  0  0  0  0
    5.4627   -1.9520    0.0000 C   0  0  0  0  0  0  0  0  0  0  0  0
    5.9262   -3.3786    0.0000 O   0  0  0  0  0  0  0  0  0  0  0  0
    3.9955   -1.6402    0.0000 N   0  0  0  0  0  0  0  0  0  0  0  0
    2.9918   -2.7549    0.0000 C   0  0  0  0  0  0  0  0  0  0  0  0
    3.3037   -4.2221    0.0000 N   0  0  0  0  0  0  0  0  0  0  0  0
    2.0046   -4.9721    0.0000 N   0  0  0  0  0  0  0  0  0  0  0  0
    0.8899   -3.9684    0.0000 N   0  0  0  0  0  0  0  0  0  0  0  0
    1.5000   -2.5981    0.0000 N   0  0  0  0  0  0  0  0  0  0  0  0
    0.7500   -1.2990    0.0000 C   0  0  0  0  0  0  0  0  0  0  0  0
    1.5000    0.0000    0.0000 C   0  0  0  0  0  0  0  0  0  0  0  0
    0.7500    1.2990    0.0000 C   0  0  0  0  0  0  0  0  0  0  0  0
   -0.7500    1.2990    0.0000 C   0  0  0  0  0  0  0  0  0  0  0  0
   -1.5000    2.5981    0.0000 O   0  0  0  0  0  0  0  0  0  0  0  0
   -1.5000    0.0000    0.0000 C   0  0  0  0  0  0  0  0  0  0  0  0
   -0.7500   -1.2990    0.0000 C   0  0  0  0  0  0  0  0  0  0  0  0
    7.9582   -0.9941    0.0000 C   0  0  0  0  0  0  0  0  0  0  0  0
    8.5683    0.3762    0.0000 C   0  0  0  0  0  0  0  0  0  0  0  0
  1  2  1  0
  2  3  1  0
  3  4  1  0
  4  5  2  0
  5  6  1  0
  6  7  1  0
  7  8  2  0
  7  9  1  0
  9 10  1  0
 10 11  2  0
 11 12  1  0
 12 13  2  0
 13 14  1  0
 14 15  1  0
 15 16  2  0
 16 17  1  0
 17 18  2  0
 18 19  1  0
 18 20  1  0
 20 21  2  0
  6 22  1  0
 22 23  2  0
 23  4  1  0
 14 10  1  0
 21 15  1  0
M  END
>  <Title>  (332) 
idAAKVgen14

$$$$

     RDKit          2D

  7  7  0  0  0  0  0  0  0  0999 V2000
    3.5260   -1.2990    0.0000 C   0  0  0  0  0  0  0  0  0  0  0  0
    2.7760    0.0000    0.0000 C   0  0  0  0  0  0  0  0  0  0  0  0
    1.2760    0.0000    0.0000 C   0  0  0  0  0  0  0  0  0  0  0  0
    0.3943    1.2135    0.0000 C   0  0  0  0  0  0  0  0  0  0  0  0
   -1.0323    0.7500    0.0000 C   0  0  0  0  0  0  0  0  0  0  0  0
   -1.0323   -0.7500    0.0000 C   0  0  0  0  0  0  0  0  0  0  0  0
    0.3943   -1.2135    0.0000 C   0  0  0  0  0  0  0  0  0  0  0  0
  1  2  1  0
  2  3  1  0
  3  4  2  0
  4  5  1  0
  5  6  2  0
  6  7  2  0
  7  3  1  0
M  END
>  <Title>  (333) 
idAAKWgen14

$$$$

     RDKit          2D

 37 41  0  0  0  0  0  0  0  0999 V2000
   -3.1965   -1.7857    0.0000 C   0  0  0  0  0  0  0  0  0  0  0  0
   -1.8107   -2.3597    0.0000 C   0  0  0  0  0  0  0  0  0  0  0  0
   -1.8107   -3.8597    0.0000 C   0  0  0  0  0  0  0  0  0  0  0  0
   -0.7500   -4.9204    0.0000 C   0  0  0  0  0  0  0  0  0  0  0  0
    0.7500   -4.9204    0.0000 C   0  0  0  0  0  0  0  0  0  0  0  0
    1.8107   -3.8597    0.0000 C   0  0  0  0  0  0  0  0  0  0  0  0
    1.8107   -2.3597    0.0000 C   0  0  0  0  0  0  0  0  0  0  0  0
    3.1965   -1.7857    0.0000 C   0  0  0  0  0  0  0  0  0  0  0  0
    3.3923   -0.2985    0.0000 O   0  0  0  0  0  0  0  0  0  0  0  0
    4.3865   -2.6988    0.0000 N   0  0  0  0  0  0  0  0  0  0  0  0
    5.7723   -2.1248    0.0000 C   0  0  0  0  0  0  0  0  0  0  0  0
    6.1225   -0.6662    0.0000 N   0  0  0  0  0  0  0  0  0  0  0  0
    7.6179   -0.5485    0.0000 N   0  0  0  0  0  0  0  0  0  0  0  0
    8.1919   -1.9344    0.0000 N   0  0  0  0  0  0  0  0  0  0  0  0
    7.0513   -2.9085    0.0000 N   0  0  0  0  0  0  0  0  0  0  0  0
    7.1690   -4.4039    0.0000 C   0  0  0  0  0  0  0  0  0  0  0  0
    8.4479   -5.1877    0.0000 C   0  0  0  0  0  0  0  0  0  0  0  0
    8.0978   -6.6462    0.0000 C   0  0  0  0  0  0  0  0  0  0  0  0
    6.6024   -6.7639    0.0000 C   0  0  0  0  0  0  0  0  0  0  0  0
    5.8186   -8.0429    0.0000 O   0  0  0  0  0  0  0  0  0  0  0  0
    4.3192   -8.0036    0.0000 C   0  0  0  0  0  0  0  0  0  0  0  0
    3.6034   -6.6854    0.0000 O   0  0  0  0  0  0  0  0  0  0  0  0
    3.5354   -9.2826    0.0000 N   0  0  0  0  0  0  0  0  0  0  0  0
    2.0359   -9.2433    0.0000 C   0  0  0  0  0  0  0  0  0  0  0  0
    1.3202   -7.9251    0.0000 N   0  0  0  0  0  0  0  0  0  0  0  0
   -0.1793   -7.8858    0.0000 N   0  0  0  0  0  0  0  0  0  0  0  0
   -0.9630   -9.1648    0.0000 N   0  0  0  0  0  0  0  0  0  0  0  0
   -0.2473  -10.4830    0.0000 N   0  0  0  0  0  0  0  0  0  0  0  0
    1.2522  -10.5223    0.0000 N   0  0  0  0  0  0  0  0  0  0  0  0
    6.0284   -5.3781    0.0000 C   0  0  0  0  0  0  0  0  0  0  0  0
    4.5698   -5.0279    0.0000 O   0  0  0  0  0  0  0  0  0  0  0  0
    0.7500   -1.2990    0.0000 C   0  0  0  0  0  0  0  0  0  0  0  0
    1.5000    0.0000    0.0000 C   0  0  0  0  0  0  0  0  0  0  0  0
    0.7500    1.2990    0.0000 C   0  0  0  0  0  0  0  0  0  0  0  0
   -0.7500    1.2990    0.0000 C   0  0  0  0  0  0  0  0  0  0  0  0
   -1.5000    0.0000    0.0000 C   0  0  0  0  0  0  0  0  0  0  0  0
   -0.7500   -1.2990    0.0000 C   0  0  0  0  0  0  0  0  0  0  0  0
  1  2  1  0
  2  3  1  0
  3  4  2  0
  4  5  1  0
  5  6  1  0
  6  7  1  0
  7  8  1  0
  8  9  2  0
  8 10  1  0
 10 11  1  0
 11 12  2  0
 12 13  1  0
 13 14  2  0
 14 15  1  0
 15 16  1  0
 16 17  2  0
 17 18  1  0
 18 19  2  0
 19 20  1  0
 20 21  1  0
 21 22  2  0
 21 23  1  0
 23 24  1  0
 24 25  2  0
 25 26  1  0
 26 27  2  0
 27 28  1  0
 28 29  2  0
 19 30  1  0
 30 31  2  0
  7 32  1  0
 32 33  2  0
 33 34  1  0
 34 35  2  0
 35 36  1  0
 36 37  2  0
 37  2  1  0
 15 11  1  0
 30 16  1  0
 37 32  1  0
 29 24  1  0
M  END
>  <Title>  (334) 
idAAKXgen14

$$$$

     RDKit          2D

 37 41  0  0  0  0  0  0  0  0999 V2000
   -4.2479   -5.2363    0.0000 C   0  0  0  0  0  0  0  0  0  0  0  0
   -2.7990   -4.8481    0.0000 C   0  0  0  0  0  0  0  0  0  0  0  0
   -2.0490   -6.1471    0.0000 C   0  0  0  0  0  0  0  0  0  0  0  0
   -0.7500   -6.8971    0.0000 C   0  0  0  0  0  0  0  0  0  0  0  0
    0.7500   -6.8971    0.0000 C   0  0  0  0  0  0  0  0  0  0  0  0
    1.1382   -8.3460    0.0000 C   0  0  0  0  0  0  0  0  0  0  0  0
    2.5871   -8.7342    0.0000 O   0  0  0  0  0  0  0  0  0  0  0  0
    0.0776   -9.4067    0.0000 N   0  0  0  0  0  0  0  0  0  0  0  0
    0.4658  -10.8556    0.0000 C   0  0  0  0  0  0  0  0  0  0  0  0
    1.8662  -11.3931    0.0000 N   0  0  0  0  0  0  0  0  0  0  0  0
    1.7877  -12.8910    0.0000 N   0  0  0  0  0  0  0  0  0  0  0  0
    0.3388  -13.2793    0.0000 N   0  0  0  0  0  0  0  0  0  0  0  0
   -0.4782  -12.0213    0.0000 N   0  0  0  0  0  0  0  0  0  0  0  0
   -1.9761  -11.9428    0.0000 C   0  0  0  0  0  0  0  0  0  0  0  0
   -2.6571  -10.6063    0.0000 C   0  0  0  0  0  0  0  0  0  0  0  0
   -4.1551  -10.5278    0.0000 C   0  0  0  0  0  0  0  0  0  0  0  0
   -4.9720  -11.7858    0.0000 C   0  0  0  0  0  0  0  0  0  0  0  0
   -6.4700  -11.7073    0.0000 O   0  0  0  0  0  0  0  0  0  0  0  0
   -4.2910  -13.1223    0.0000 C   0  0  0  0  0  0  0  0  0  0  0  0
   -2.7931  -13.2008    0.0000 C   0  0  0  0  0  0  0  0  0  0  0  0
    2.0490   -6.1471    0.0000 C   0  0  0  0  0  0  0  0  0  0  0  0
    2.7990   -4.8481    0.0000 C   0  0  0  0  0  0  0  0  0  0  0  0
    4.2479   -5.2363    0.0000 O   0  0  0  0  0  0  0  0  0  0  0  0
    2.7990   -3.3481    0.0000 N   0  0  0  0  0  0  0  0  0  0  0  0
    2.0490   -2.0490    0.0000 C   0  0  0  0  0  0  0  0  0  0  0  0
    0.7500   -1.2990    0.0000 C   0  0  0  0  0  0  0  0  0  0  0  0
    1.5000    0.0000    0.0000 C   0  0  0  0  0  0  0  0  0  0  0  0
    0.7500    1.2990    0.0000 C   0  0  0  0  0  0  0  0  0  0  0  0
   -0.7500    1.2990    0.0000 C   0  0  0  0  0  0  0  0  0  0  0  0
   -1.5000    0.0000    0.0000 C   0  0  0  0  0  0  0  0  0  0  0  0
   -0.7500   -1.2990    0.0000 C   0  0  0  0  0  0  0  0  0  0  0  0
   -2.0490   -2.0490    0.0000 C   0  0  0  0  0  0  0  0  0  0  0  0
   -2.7990   -0.7500    0.0000 C   0  0  0  0  0  0  0  0  0  0  0  0
   -4.2990   -0.7500    0.0000 C   0  0  0  0  0  0  0  0  0  0  0  0
   -5.0490   -2.0490    0.0000 C   0  0  0  0  0  0  0  0  0  0  0  0
   -4.2990   -3.3481    0.0000 C   0  0  0  0  0  0  0  0  0  0  0  0
   -2.7990   -3.3481    0.0000 C   0  0  0  0  0  0  0  0  0  0  0  0
  1  2  1  0
  2  3  1  0
  3  4  1  0
  4  5  1  0
  5  6  1  0
  6  7  2  0
  6  8  1  0
  8  9  1  0
  9 10  2  0
 10 11  1  0
 11 12  2  0
 12 13  1  0
 13 14  1  0
 14 15  2  0
 15 16  1  0
 16 17  2  0
 17 18  1  0
 17 19  1  0
 19 20  2  0
  5 21  1  0
 21 22  1  0
 22 23  2  0
 22 24  1  0
 24 25  1  0
 25 26  1  0
 26 27  2  0
 27 28  1  0
 28 29  2  0
 29 30  1  0
 30 31  2  0
 31 32  1  0
 32 33  2  0
 33 34  1  0
 34 35  2  0
 35 36  1  0
 36 37  2  0
 37  2  1  0
 13  9  1  0
 20 14  1  0
 31 26  1  0
 37 32  1  0
M  END
>  <Title>  (335) 
idAAKYgen14

$$$$

     RDKit          2D

 37 41  0  0  0  0  0  0  0  0999 V2000
   -5.2500   -3.8971    0.0000 C   0  0  0  0  0  0  0  0  0  0  0  0
   -3.7500   -3.8971    0.0000 C   0  0  0  0  0  0  0  0  0  0  0  0
   -3.0000   -2.5981    0.0000 C   0  0  0  0  0  0  0  0  0  0  0  0
   -1.5000   -2.5981    0.0000 C   0  0  0  0  0  0  0  0  0  0  0  0
   -0.7500   -3.8971    0.0000 C   0  0  0  0  0  0  0  0  0  0  0  0
    0.7500   -3.8971    0.0000 C   0  0  0  0  0  0  0  0  0  0  0  0
    1.5000   -2.5981    0.0000 C   0  0  0  0  0  0  0  0  0  0  0  0
    3.0000   -2.5981    0.0000 C   0  0  0  0  0  0  0  0  0  0  0  0
    3.7500   -1.2990    0.0000 O   0  0  0  0  0  0  0  0  0  0  0  0
    3.7500   -3.8971    0.0000 N   0  0  0  0  0  0  0  0  0  0  0  0
    5.2500   -3.8971    0.0000 C   0  0  0  0  0  0  0  0  0  0  0  0
    6.1317   -2.6836    0.0000 N   0  0  0  0  0  0  0  0  0  0  0  0
    7.5583   -3.1471    0.0000 N   0  0  0  0  0  0  0  0  0  0  0  0
    7.5583   -4.6471    0.0000 N   0  0  0  0  0  0  0  0  0  0  0  0
    6.1317   -5.1106    0.0000 N   0  0  0  0  0  0  0  0  0  0  0  0
    5.6682   -6.5372    0.0000 C   0  0  0  0  0  0  0  0  0  0  0  0
    6.5498   -7.7508    0.0000 C   0  0  0  0  0  0  0  0  0  0  0  0
    5.6682   -8.9643    0.0000 C   0  0  0  0  0  0  0  0  0  0  0  0
    4.2416   -8.5008    0.0000 C   0  0  0  0  0  0  0  0  0  0  0  0
    3.0280   -9.3824    0.0000 O   0  0  0  0  0  0  0  0  0  0  0  0
    1.6577   -8.7723    0.0000 C   0  0  0  0  0  0  0  0  0  0  0  0
    1.5009   -7.2805    0.0000 O   0  0  0  0  0  0  0  0  0  0  0  0
    0.4442   -9.6540    0.0000 N   0  0  0  0  0  0  0  0  0  0  0  0
   -0.9261   -9.0439    0.0000 C   0  0  0  0  0  0  0  0  0  0  0  0
   -1.0829   -7.5521    0.0000 N   0  0  0  0  0  0  0  0  0  0  0  0
   -2.4532   -6.9420    0.0000 N   0  0  0  0  0  0  0  0  0  0  0  0
   -3.6668   -7.8237    0.0000 N   0  0  0  0  0  0  0  0  0  0  0  0
   -3.5100   -9.3155    0.0000 N   0  0  0  0  0  0  0  0  0  0  0  0
   -2.1396   -9.9256    0.0000 N   0  0  0  0  0  0  0  0  0  0  0  0
    4.2416   -7.0008    0.0000 C   0  0  0  0  0  0  0  0  0  0  0  0
    3.0280   -6.1191    0.0000 O   0  0  0  0  0  0  0  0  0  0  0  0
    0.7500   -1.2990    0.0000 C   0  0  0  0  0  0  0  0  0  0  0  0
    1.5000    0.0000    0.0000 C   0  0  0  0  0  0  0  0  0  0  0  0
    0.7500    1.2990    0.0000 C   0  0  0  0  0  0  0  0  0  0  0  0
   -0.7500    1.2990    0.0000 C   0  0  0  0  0  0  0  0  0  0  0  0
   -1.5000    0.0000    0.0000 C   0  0  0  0  0  0  0  0  0  0  0  0
   -0.7500   -1.2990    0.0000 C   0  0  0  0  0  0  0  0  0  0  0  0
  1  2  1  0
  2  3  1  0
  3  4  1  0
  4  5  2  0
  5  6  1  0
  6  7  2  0
  7  8  1  0
  8  9  2  0
  8 10  1  0
 10 11  1  0
 11 12  2  0
 12 13  1  0
 13 14  2  0
 14 15  1  0
 15 16  1  0
 16 17  2  0
 17 18  1  0
 18 19  2  0
 19 20  1  0
 20 21  1  0
 21 22  2  0
 21 23  1  0
 23 24  1  0
 24 25  2  0
 25 26  1  0
 26 27  2  0
 27 28  1  0
 28 29  2  0
 19 30  1  0
 30 31  2  0
  7 32  1  0
 32 33  2  0
 33 34  1  0
 34 35  2  0
 35 36  1  0
 36 37  2  0
 37  4  1  0
 15 11  1  0
 30 16  1  0
 37 32  1  0
 29 24  1  0
M  END
>  <Title>  (336) 
idAAKZgen14

$$$$

     RDKit          2D

 38 42  0  0  0  0  0  0  0  0999 V2000
   -4.3865   -2.6988    0.0000 C   0  0  0  0  0  0  0  0  0  0  0  0
   -3.1965   -1.7857    0.0000 C   0  0  0  0  0  0  0  0  0  0  0  0
   -1.8107   -2.3597    0.0000 C   0  0  0  0  0  0  0  0  0  0  0  0
   -1.8107   -3.8597    0.0000 C   0  0  0  0  0  0  0  0  0  0  0  0
   -0.7500   -4.9204    0.0000 C   0  0  0  0  0  0  0  0  0  0  0  0
    0.7500   -4.9204    0.0000 C   0  0  0  0  0  0  0  0  0  0  0  0
    1.3240   -6.3062    0.0000 C   0  0  0  0  0  0  0  0  0  0  0  0
    2.8112   -6.5020    0.0000 O   0  0  0  0  0  0  0  0  0  0  0  0
    0.4109   -7.4962    0.0000 N   0  0  0  0  0  0  0  0  0  0  0  0
    0.9849   -8.8820    0.0000 C   0  0  0  0  0  0  0  0  0  0  0  0
    2.4435   -9.2322    0.0000 N   0  0  0  0  0  0  0  0  0  0  0  0
    2.5612  -10.7276    0.0000 N   0  0  0  0  0  0  0  0  0  0  0  0
    1.1753  -11.3016    0.0000 N   0  0  0  0  0  0  0  0  0  0  0  0
    0.2012  -10.1610    0.0000 N   0  0  0  0  0  0  0  0  0  0  0  0
   -1.2942  -10.2787    0.0000 C   0  0  0  0  0  0  0  0  0  0  0  0
   -2.0780  -11.5576    0.0000 C   0  0  0  0  0  0  0  0  0  0  0  0
   -3.5365  -11.2075    0.0000 C   0  0  0  0  0  0  0  0  0  0  0  0
   -3.6542   -9.7121    0.0000 C   0  0  0  0  0  0  0  0  0  0  0  0
   -4.9332   -8.9283    0.0000 C   0  0  0  0  0  0  0  0  0  0  0  0
   -6.2514   -9.6441    0.0000 O   0  0  0  0  0  0  0  0  0  0  0  0
   -4.8939   -7.4289    0.0000 N   0  0  0  0  0  0  0  0  0  0  0  0
   -6.1729   -6.6451    0.0000 C   0  0  0  0  0  0  0  0  0  0  0  0
   -6.1336   -5.1456    0.0000 N   0  0  0  0  0  0  0  0  0  0  0  0
   -7.4126   -4.3619    0.0000 N   0  0  0  0  0  0  0  0  0  0  0  0
   -8.7308   -5.0776    0.0000 N   0  0  0  0  0  0  0  0  0  0  0  0
   -8.7700   -6.5771    0.0000 N   0  0  0  0  0  0  0  0  0  0  0  0
   -7.4911   -7.3608    0.0000 N   0  0  0  0  0  0  0  0  0  0  0  0
   -2.2684   -9.1381    0.0000 C   0  0  0  0  0  0  0  0  0  0  0  0
   -1.9182   -7.6795    0.0000 O   0  0  0  0  0  0  0  0  0  0  0  0
    1.8107   -3.8597    0.0000 C   0  0  0  0  0  0  0  0  0  0  0  0
    3.1965   -4.4337    0.0000 O   0  0  0  0  0  0  0  0  0  0  0  0
    1.8107   -2.3597    0.0000 O   0  0  0  0  0  0  0  0  0  0  0  0
    0.7500   -1.2990    0.0000 C   0  0  0  0  0  0  0  0  0  0  0  0
    1.5000    0.0000    0.0000 C   0  0  0  0  0  0  0  0  0  0  0  0
    0.7500    1.2990    0.0000 C   0  0  0  0  0  0  0  0  0  0  0  0
   -0.7500    1.2990    0.0000 C   0  0  0  0  0  0  0  0  0  0  0  0
   -1.5000    0.0000    0.0000 C   0  0  0  0  0  0  0  0  0  0  0  0
   -0.7500   -1.2990    0.0000 C   0  0  0  0  0  0  0  0  0  0  0  0
  1  2  1  0
  2  3  1  0
  3  4  2  0
  4  5  1  0
  5  6  2  0
  6  7  1  0
  7  8  2  0
  7  9  1  0
  9 10  1  0
 10 11  2  0
 11 12  1  0
 12 13  2  0
 13 14  1  0
 14 15  1  0
 15 16  2  0
 16 17  1  0
 17 18  2  0
 18 19  1  0
 19 20  2  0
 19 21  1  0
 21 22  1  0
 22 23  2  0
 23 24  1  0
 24 25  2  0
 25 26  1  0
 26 27  2  0
 18 28  1  0
 28 29  2  0
  6 30  1  0
 30 31  2  0
 30 32  1  0
 32 33  1  0
 33 34  2  0
 34 35  1  0
 35 36  2  0
 36 37  1  0
 37 38  2  0
 38  3  1  0
 14 10  1  0
 28 15  1  0
 38 33  1  0
 27 22  1  0
M  END
>  <Title>  (337) 
idAALAgen14

$$$$

     RDKit          2D

 11 11  0  0  0  0  0  0  0  0999 V2000
    6.0000   -2.5981    0.0000 C   0  0  0  0  0  0  0  0  0  0  0  0
    5.2500   -1.2990    0.0000 C   0  0  0  0  0  0  0  0  0  0  0  0
    6.0000    0.0000    0.0000 O   0  0  0  0  0  0  0  0  0  0  0  0
    3.7500   -1.2990    0.0000 N   0  0  0  0  0  0  0  0  0  0  0  0
    3.0000    0.0000    0.0000 C   0  0  0  0  0  0  0  0  0  0  0  0
    1.5000    0.0000    0.0000 C   0  0  0  0  0  0  0  0  0  0  0  0
    0.7500   -1.2990    0.0000 C   0  0  0  0  0  0  0  0  0  0  0  0
   -0.7500   -1.2990    0.0000 C   0  0  0  0  0  0  0  0  0  0  0  0
   -1.5000    0.0000    0.0000 C   0  0  0  0  0  0  0  0  0  0  0  0
   -0.7500    1.2990    0.0000 C   0  0  0  0  0  0  0  0  0  0  0  0
    0.7500    1.2990    0.0000 C   0  0  0  0  0  0  0  0  0  0  0  0
  1  2  1  0
  2  3  2  0
  2  4  1  0
  4  5  1  0
  5  6  1  0
  6  7  2  0
  7  8  1  0
  8  9  1  0
  9 10  1  0
 10 11  2  0
 11  6  1  0
M  END
>  <Title>  (338) 
idAALBgen14

$$$$

     RDKit          2D

  6  6  0  0  0  0  0  0  0  0999 V2000
    2.7760    0.0000    0.0000 C   0  0  0  0  0  0  0  0  0  0  0  0
    1.2760    0.0000    0.0000 C   0  0  0  0  0  0  0  0  0  0  0  0
    0.3943    1.2135    0.0000 C   0  0  0  0  0  0  0  0  0  0  0  0
   -1.0323    0.7500    0.0000 C   0  0  0  0  0  0  0  0  0  0  0  0
   -1.0323   -0.7500    0.0000 N   0  0  0  0  0  0  0  0  0  0  0  0
    0.3943   -1.2135    0.0000 C   0  0  0  0  0  0  0  0  0  0  0  0
  1  2  1  0
  2  3  1  0
  3  4  2  0
  4  5  1  0
  5  6  1  0
  6  2  2  0
M  END
>  <Title>  (339) 
idAALCgen14

$$$$

     RDKit          2D

 33 37  0  0  0  0  0  0  0  0999 V2000
   -3.0000   -2.5981    0.0000 C   0  0  0  0  0  0  0  0  0  0  0  0
   -1.5000   -2.5981    0.0000 C   0  0  0  0  0  0  0  0  0  0  0  0
   -0.7500   -3.8971    0.0000 C   0  0  0  0  0  0  0  0  0  0  0  0
    0.7500   -3.8971    0.0000 C   0  0  0  0  0  0  0  0  0  0  0  0
    1.5000   -2.5981    0.0000 C   0  0  0  0  0  0  0  0  0  0  0  0
    3.0000   -2.5981    0.0000 C   0  0  0  0  0  0  0  0  0  0  0  0
    3.7500   -1.2990    0.0000 O   0  0  0  0  0  0  0  0  0  0  0  0
    3.7500   -3.8971    0.0000 N   0  0  0  0  0  0  0  0  0  0  0  0
    5.2500   -3.8971    0.0000 C   0  0  0  0  0  0  0  0  0  0  0  0
    6.1317   -2.6836    0.0000 N   0  0  0  0  0  0  0  0  0  0  0  0
    7.5583   -3.1471    0.0000 N   0  0  0  0  0  0  0  0  0  0  0  0
    7.5583   -4.6471    0.0000 N   0  0  0  0  0  0  0  0  0  0  0  0
    6.1317   -5.1106    0.0000 N   0  0  0  0  0  0  0  0  0  0  0  0
    5.6682   -6.5372    0.0000 N   0  0  0  0  0  0  0  0  0  0  0  0
    4.3316   -7.2182    0.0000 C   0  0  0  0  0  0  0  0  0  0  0  0
    5.0126   -8.5547    0.0000 C   0  0  0  0  0  0  0  0  0  0  0  0
    4.5491   -9.9813    0.0000 C   0  0  0  0  0  0  0  0  0  0  0  0
    5.5528  -11.0960    0.0000 O   0  0  0  0  0  0  0  0  0  0  0  0
    3.0819  -10.2932    0.0000 N   0  0  0  0  0  0  0  0  0  0  0  0
    2.6184  -11.7198    0.0000 C   0  0  0  0  0  0  0  0  0  0  0  0
    1.1511  -12.0316    0.0000 N   0  0  0  0  0  0  0  0  0  0  0  0
    0.6876  -13.4582    0.0000 N   0  0  0  0  0  0  0  0  0  0  0  0
    1.6913  -14.5729    0.0000 N   0  0  0  0  0  0  0  0  0  0  0  0
    3.1585  -14.2611    0.0000 N   0  0  0  0  0  0  0  0  0  0  0  0
    3.6221  -12.8345    0.0000 N   0  0  0  0  0  0  0  0  0  0  0  0
    6.3491   -7.8737    0.0000 C   0  0  0  0  0  0  0  0  0  0  0  0
    7.7757   -8.3373    0.0000 O   0  0  0  0  0  0  0  0  0  0  0  0
    0.7500   -1.2990    0.0000 C   0  0  0  0  0  0  0  0  0  0  0  0
    1.5000    0.0000    0.0000 C   0  0  0  0  0  0  0  0  0  0  0  0
    0.7500    1.2990    0.0000 C   0  0  0  0  0  0  0  0  0  0  0  0
   -0.7500    1.2990    0.0000 C   0  0  0  0  0  0  0  0  0  0  0  0
   -1.5000    0.0000    0.0000 C   0  0  0  0  0  0  0  0  0  0  0  0
   -0.7500   -1.2990    0.0000 C   0  0  0  0  0  0  0  0  0  0  0  0
  1  2  1  0
  2  3  2  0
  3  4  1  0
  4  5  2  0
  5  6  1  0
  6  7  2  0
  6  8  1  0
  8  9  1  0
  9 10  2  0
 10 11  1  0
 11 12  2  0
 12 13  1  0
 13 14  1  0
 14 15  1  0
 15 16  2  0
 16 17  1  0
 17 18  2  0
 17 19  1  0
 19 20  1  0
 20 21  2  0
 21 22  1  0
 22 23  2  0
 23 24  1  0
 24 25  2  0
 16 26  1  0
 26 27  2  0
  5 28  1  0
 28 29  2  0
 29 30  1  0
 30 31  2  0
 31 32  1  0
 32 33  2  0
 33  2  1  0
 13  9  1  0
 26 14  1  0
 33 28  1  0
 25 20  1  0
M  END
>  <Title>  (340) 
idAALDgen14

$$$$

     RDKit          2D

  6  5  0  0  0  0  0  0  0  0999 V2000
    0.0000    0.0000    0.0000 C   0  0  0  0  0  0  0  0  0  0  0  0
   -0.0000   -1.5000    0.0000 C   0  0  0  0  0  0  0  0  0  0  0  0
   -0.0000   -3.0000    0.0000 C   0  0  0  0  0  0  0  0  0  0  0  0
   -0.0000   -4.5000    0.0000 C   0  0  0  0  0  0  0  0  0  0  0  0
   -0.0000   -6.0000    0.0000 C   0  0  0  0  0  0  0  0  0  0  0  0
   -0.0000   -7.5000    0.0000 C   0  0  0  0  0  0  0  0  0  0  0  0
  1  2  3  0
  2  3  1  0
  3  4  3  0
  4  5  1  0
  5  6  3  0
M  END
>  <Title>  (341) 
idAALEgen14

$$$$

     RDKit          2D

 19 18  0  0  0  0  0  0  0  0999 V2000
    0.0000    0.0000    0.0000 C   0  0  0  0  0  0  0  0  0  0  0  0
   -0.0000   -1.5000    0.0000 C   0  0  0  0  0  0  0  0  0  0  0  0
   -0.0000   -3.0000    0.0000 C   0  0  0  0  0  0  0  0  0  0  0  0
   -0.0000   -4.5000    0.0000 C   0  0  0  0  0  0  0  0  0  0  0  0
   -0.0000   -6.0000    0.0000 C   0  0  0  0  0  0  0  0  0  0  0  0
   -0.0000   -7.5000    0.0000 C   0  0  0  0  0  0  0  0  0  0  0  0
   -0.0000   -9.0000    0.0000 C   0  0  0  0  0  0  0  0  0  0  0  0
   -0.0000  -10.5000    0.0000 C   0  0  0  0  0  0  0  0  0  0  0  0
   -0.0000  -12.0000    0.0000 C   0  0  0  0  0  0  0  0  0  0  0  0
   -0.0000  -13.5000    0.0000 C   0  0  0  0  0  0  0  0  0  0  0  0
   -0.0000  -15.0000    0.0000 C   0  0  0  0  0  0  0  0  0  0  0  0
   -0.0000  -16.5000    0.0000 C   0  0  0  0  0  0  0  0  0  0  0  0
   -0.0000  -18.0000    0.0000 C   0  0  0  0  0  0  0  0  0  0  0  0
   -0.0000  -19.5000    0.0000 C   0  0  0  0  0  0  0  0  0  0  0  0
   -0.0000  -21.0000    0.0000 C   0  0  0  0  0  0  0  0  0  0  0  0
   -0.0000  -22.5000    0.0000 C   0  0  0  0  0  0  0  0  0  0  0  0
   -0.0000  -24.0000    0.0000 C   0  0  0  0  0  0  0  0  0  0  0  0
    1.2990  -24.7500    0.0000 C   0  0  0  0  0  0  0  0  0  0  0  0
   -1.2990  -24.7500    0.0000 C   0  0  0  0  0  0  0  0  0  0  0  0
  1  2  3  0
  2  3  1  0
  3  4  3  0
  4  5  1  0
  5  6  3  0
  6  7  1  0
  7  8  3  0
  8  9  1  0
  9 10  3  0
 10 11  1  0
 11 12  3  0
 12 13  1  0
 13 14  3  0
 14 15  1  0
 15 16  3  0
 16 17  1  0
 17 18  1  0
 17 19  1  0
M  END
>  <Title>  (342) 
idAALFgen14

$$$$

     RDKit          2D

 17 17  0  0  0  0  0  0  0  0999 V2000
   16.5000    0.0000    0.0000 C   0  0  0  0  0  0  0  0  0  0  0  0
   15.0000    0.0000    0.0000 C   0  0  0  0  0  0  0  0  0  0  0  0
   13.5000    0.0000    0.0000 C   0  0  0  0  0  0  0  0  0  0  0  0
   12.0000    0.0000    0.0000 C   0  0  0  0  0  0  0  0  0  0  0  0
   10.5000    0.0000    0.0000 C   0  0  0  0  0  0  0  0  0  0  0  0
    9.0000    0.0000    0.0000 C   0  0  0  0  0  0  0  0  0  0  0  0
    7.5000    0.0000    0.0000 C   0  0  0  0  0  0  0  0  0  0  0  0
    6.0000    0.0000    0.0000 C   0  0  0  0  0  0  0  0  0  0  0  0
    4.5000    0.0000    0.0000 C   0  0  0  0  0  0  0  0  0  0  0  0
    3.0000    0.0000    0.0000 C   0  0  0  0  0  0  0  0  0  0  0  0
    1.5000    0.0000    0.0000 C   0  0  0  0  0  0  0  0  0  0  0  0
    0.7500   -1.2990    0.0000 C   0  0  0  0  0  0  0  0  0  0  0  0
   -0.7500   -1.2990    0.0000 C   0  0  0  0  0  0  0  0  0  0  0  0
   -1.5000    0.0000    0.0000 C   0  0  0  0  0  0  0  0  0  0  0  0
   -3.0000    0.0000    0.0000 C   0  0  0  0  0  0  0  0  0  0  0  0
   -0.7500    1.2990    0.0000 C   0  0  0  0  0  0  0  0  0  0  0  0
    0.7500    1.2990    0.0000 C   0  0  0  0  0  0  0  0  0  0  0  0
  1  2  3  0
  2  3  1  0
  3  4  3  0
  4  5  1  0
  5  6  3  0
  6  7  1  0
  7  8  3  0
  8  9  1  0
  9 10  3  0
 10 11  1  0
 11 12  2  0
 12 13  1  0
 13 14  2  0
 14 15  1  0
 14 16  1  0
 16 17  2  0
 17 11  1  0
M  END
>  <Title>  (343) 
idAALGgen14

$$$$

     RDKit          2D

 71 75  0  0  0  0  0  0  0  0999 V2000
  -54.3313    9.5443    0.0000 N   0  0  0  0  0  0  0  0  0  0  0  0
  -52.8690    9.2106    0.0000 C   0  0  0  0  0  0  0  0  0  0  0  0
  -51.4066    8.8768    0.0000 C   0  0  0  0  0  0  0  0  0  0  0  0
  -49.9442    8.5430    0.0000 C   0  0  0  0  0  0  0  0  0  0  0  0
  -48.4818    8.2092    0.0000 C   0  0  0  0  0  0  0  0  0  0  0  0
  -47.0194    7.8754    0.0000 C   0  0  0  0  0  0  0  0  0  0  0  0
  -45.5570    7.5417    0.0000 C   0  0  0  0  0  0  0  0  0  0  0  0
  -44.0946    7.2079    0.0000 C   0  0  0  0  0  0  0  0  0  0  0  0
  -42.6322    6.8741    0.0000 C   0  0  0  0  0  0  0  0  0  0  0  0
  -41.1698    6.5403    0.0000 C   0  0  0  0  0  0  0  0  0  0  0  0
  -39.7074    6.2065    0.0000 C   0  0  0  0  0  0  0  0  0  0  0  0
  -38.2450    5.8727    0.0000 C   0  0  0  0  0  0  0  0  0  0  0  0
  -36.7826    5.5390    0.0000 C   0  0  0  0  0  0  0  0  0  0  0  0
  -35.3202    5.2052    0.0000 C   0  0  0  0  0  0  0  0  0  0  0  0
  -33.8579    4.8714    0.0000 C   0  0  0  0  0  0  0  0  0  0  0  0
  -32.3955    4.5376    0.0000 C   0  0  0  0  0  0  0  0  0  0  0  0
  -30.9331    4.2038    0.0000 C   0  0  0  0  0  0  0  0  0  0  0  0
  -29.4707    3.8701    0.0000 C   0  0  0  0  0  0  0  0  0  0  0  0
  -28.0083    3.5363    0.0000 C   0  0  0  0  0  0  0  0  0  0  0  0
  -26.5459    3.2025    0.0000 C   0  0  0  0  0  0  0  0  0  0  0  0
  -25.0835    2.8687    0.0000 C   0  0  0  0  0  0  0  0  0  0  0  0
  -23.6211    2.5349    0.0000 C   0  0  0  0  0  0  0  0  0  0  0  0
  -22.1587    2.2012    0.0000 C   0  0  0  0  0  0  0  0  0  0  0  0
  -20.6963    1.8674    0.0000 C   0  0  0  0  0  0  0  0  0  0  0  0
  -19.2339    1.5336    0.0000 C   0  0  0  0  0  0  0  0  0  0  0  0
  -17.7715    1.1998    0.0000 C   0  0  0  0  0  0  0  0  0  0  0  0
  -16.3092    0.8660    0.0000 C   0  0  0  0  0  0  0  0  0  0  0  0
  -14.8468    0.5322    0.0000 C   0  0  0  0  0  0  0  0  0  0  0  0
  -13.3844    0.1985    0.0000 C   0  0  0  0  0  0  0  0  0  0  0  0
  -11.9220   -0.1353    0.0000 C   0  0  0  0  0  0  0  0  0  0  0  0
  -10.4596   -0.4691    0.0000 C   0  0  0  0  0  0  0  0  0  0  0  0
   -8.9972   -0.8029    0.0000 C   0  0  0  0  0  0  0  0  0  0  0  0
   -7.5348   -1.1367    0.0000 C   0  0  0  0  0  0  0  0  0  0  0  0
   -6.0724   -1.4704    0.0000 C   0  0  0  0  0  0  0  0  0  0  0  0
   -4.6100   -1.8042    0.0000 C   0  0  0  0  0  0  0  0  0  0  0  0
   -3.1476   -2.1380    0.0000 C   0  0  0  0  0  0  0  0  0  0  0  0
   -1.6852   -2.4718    0.0000 C   0  0  0  0  0  0  0  0  0  0  0  0
   -1.3515   -3.9342    0.0000 C   0  0  0  0  0  0  0  0  0  0  0  0
   -0.0000   -4.5850    0.0000 C   0  0  0  0  0  0  0  0  0  0  0  0
    1.3515   -3.9342    0.0000 C   0  0  0  0  0  0  0  0  0  0  0  0
    1.6852   -2.4718    0.0000 C   0  0  0  0  0  0  0  0  0  0  0  0
    3.1476   -2.1380    0.0000 O   0  0  0  0  0  0  0  0  0  0  0  0
    4.1679   -3.2376    0.0000 C   0  0  0  0  0  0  0  0  0  0  0  0
    3.7258   -4.6709    0.0000 O   0  0  0  0  0  0  0  0  0  0  0  0
    5.6303   -2.9038    0.0000 N   0  0  0  0  0  0  0  0  0  0  0  0
    6.6505   -4.0034    0.0000 C   0  0  0  0  0  0  0  0  0  0  0  0
    6.3607   -5.4751    0.0000 N   0  0  0  0  0  0  0  0  0  0  0  0
    7.6708   -6.2056    0.0000 N   0  0  0  0  0  0  0  0  0  0  0  0
    8.7703   -5.1853    0.0000 N   0  0  0  0  0  0  0  0  0  0  0  0
    8.1398   -3.8243    0.0000 N   0  0  0  0  0  0  0  0  0  0  0  0
    8.8703   -2.5142    0.0000 N   0  0  0  0  0  0  0  0  0  0  0  0
    8.2398   -1.1531    0.0000 C   0  0  0  0  0  0  0  0  0  0  0  0
    9.3393   -0.1329    0.0000 C   0  0  0  0  0  0  0  0  0  0  0  0
   10.6494   -0.8634    0.0000 N   0  0  0  0  0  0  0  0  0  0  0  0
   12.0105   -0.2328    0.0000 C   0  0  0  0  0  0  0  0  0  0  0  0
   13.2371   -1.0963    0.0000 O   0  0  0  0  0  0  0  0  0  0  0  0
   12.1449    1.2611    0.0000 N   0  0  0  0  0  0  0  0  0  0  0  0
   13.5060    1.8917    0.0000 C   0  0  0  0  0  0  0  0  0  0  0  0
   14.7326    1.0282    0.0000 N   0  0  0  0  0  0  0  0  0  0  0  0
   16.0936    1.6588    0.0000 N   0  0  0  0  0  0  0  0  0  0  0  0
   16.2281    3.1527    0.0000 N   0  0  0  0  0  0  0  0  0  0  0  0
   15.0015    4.0162    0.0000 N   0  0  0  0  0  0  0  0  0  0  0  0
   13.6404    3.3856    0.0000 N   0  0  0  0  0  0  0  0  0  0  0  0
   10.3596   -2.3351    0.0000 C   0  0  0  0  0  0  0  0  0  0  0  0
   11.3798   -3.4347    0.0000 O   0  0  0  0  0  0  0  0  0  0  0  0
    0.7500   -1.2990    0.0000 C   0  0  0  0  0  0  0  0  0  0  0  0
    1.5000    0.0000    0.0000 C   0  0  0  0  0  0  0  0  0  0  0  0
    0.7500    1.2990    0.0000 C   0  0  0  0  0  0  0  0  0  0  0  0
   -0.7500    1.2990    0.0000 C   0  0  0  0  0  0  0  0  0  0  0  0
   -1.5000    0.0000    0.0000 C   0  0  0  0  0  0  0  0  0  0  0  0
   -0.7500   -1.2990    0.0000 C   0  0  0  0  0  0  0  0  0  0  0  0
  1  2  3  0
  2  3  1  0
  3  4  3  0
  4  5  1  0
  5  6  3  0
  6  7  1  0
  7  8  3  0
  8  9  1  0
  9 10  3  0
 10 11  1  0
 11 12  3  0
 12 13  1  0
 13 14  3  0
 14 15  1  0
 15 16  3  0
 16 17  1  0
 17 18  3  0
 18 19  1  0
 19 20  3  0
 20 21  1  0
 21 22  3  0
 22 23  1  0
 23 24  3  0
 24 25  1  0
 25 26  3  0
 26 27  1  0
 27 28  3  0
 28 29  1  0
 29 30  3  0
 30 31  1  0
 31 32  3  0
 32 33  1  0
 33 34  3  0
 34 35  1  0
 35 36  3  0
 36 37  1  0
 37 38  2  0
 38 39  1  0
 39 40  1  0
 40 41  1  0
 41 42  1  0
 42 43  1  0
 43 44  2  0
 43 45  1  0
 45 46  1  0
 46 47  2  0
 47 48  1  0
 48 49  2  0
 49 50  1  0
 50 51  1  0
 51 52  1  0
 52 53  1  0
 53 54  1  0
 54 55  1  0
 55 56  2  0
 55 57  1  0
 57 58  1  0
 58 59  2  0
 59 60  1  0
 60 61  2  0
 61 62  1  0
 62 63  2  0
 54 64  1  0
 64 65  2  0
 41 66  1  0
 66 67  2  0
 67 68  1  0
 68 69  2  0
 69 70  1  0
 70 71  2  0
 71 37  1  0
 50 46  1  0
 64 51  1  0
 71 66  1  0
 63 58  1  0
M  END
>  <Title>  (344) 
idAALHgen14

$$$$

     RDKit          2D

 39 43  0  0  0  0  0  0  0  0999 V2000
   12.7500    6.4952    0.0000 C   0  0  0  0  0  0  0  0  0  0  0  0
   12.0000    5.1962    0.0000 C   0  0  0  0  0  0  0  0  0  0  0  0
   10.5000    5.1962    0.0000 C   0  0  0  0  0  0  0  0  0  0  0  0
    9.7500    3.8971    0.0000 N   0  0  0  0  0  0  0  0  0  0  0  0
    8.2500    3.8971    0.0000 C   0  0  0  0  0  0  0  0  0  0  0  0
    7.5000    2.5981    0.0000 C   0  0  0  0  0  0  0  0  0  0  0  0
    8.2500    1.2990    0.0000 C   0  0  0  0  0  0  0  0  0  0  0  0
    7.5000    0.0000    0.0000 N   0  0  0  0  0  0  0  0  0  0  0  0
    6.0000    0.0000    0.0000 C   0  0  0  0  0  0  0  0  0  0  0  0
    5.2500   -1.2990    0.0000 O   0  0  0  0  0  0  0  0  0  0  0  0
    6.0000   -2.5981    0.0000 C   0  0  0  0  0  0  0  0  0  0  0  0
    7.5000   -2.5981    0.0000 O   0  0  0  0  0  0  0  0  0  0  0  0
    5.2500   -3.8971    0.0000 N   0  0  0  0  0  0  0  0  0  0  0  0
    6.0000   -5.1962    0.0000 C   0  0  0  0  0  0  0  0  0  0  0  0
    7.4918   -5.3529    0.0000 N   0  0  0  0  0  0  0  0  0  0  0  0
    7.8037   -6.8202    0.0000 N   0  0  0  0  0  0  0  0  0  0  0  0
    6.5046   -7.5702    0.0000 N   0  0  0  0  0  0  0  0  0  0  0  0
    5.3899   -6.5665    0.0000 N   0  0  0  0  0  0  0  0  0  0  0  0
    3.9227   -6.8783    0.0000 N   0  0  0  0  0  0  0  0  0  0  0  0
    2.8080   -5.8746    0.0000 C   0  0  0  0  0  0  0  0  0  0  0  0
    1.5089   -6.6246    0.0000 C   0  0  0  0  0  0  0  0  0  0  0  0
    1.8208   -8.0919    0.0000 N   0  0  0  0  0  0  0  0  0  0  0  0
    0.8171   -9.2066    0.0000 C   0  0  0  0  0  0  0  0  0  0  0  0
    1.2806  -10.6332    0.0000 O   0  0  0  0  0  0  0  0  0  0  0  0
   -0.6501   -8.8947    0.0000 N   0  0  0  0  0  0  0  0  0  0  0  0
   -1.1137   -7.4681    0.0000 C   0  0  0  0  0  0  0  0  0  0  0  0
   -2.5809   -7.1563    0.0000 N   0  0  0  0  0  0  0  0  0  0  0  0
   -3.0444   -5.7297    0.0000 N   0  0  0  0  0  0  0  0  0  0  0  0
   -2.0407   -4.6150    0.0000 N   0  0  0  0  0  0  0  0  0  0  0  0
   -0.5735   -4.9268    0.0000 N   0  0  0  0  0  0  0  0  0  0  0  0
   -0.1100   -6.3534    0.0000 N   0  0  0  0  0  0  0  0  0  0  0  0
    3.3126   -8.2487    0.0000 C   0  0  0  0  0  0  0  0  0  0  0  0
    4.0626   -9.5477    0.0000 O   0  0  0  0  0  0  0  0  0  0  0  0
    5.2500    1.2990    0.0000 C   0  0  0  0  0  0  0  0  0  0  0  0
    3.7500    1.2990    0.0000 C   0  0  0  0  0  0  0  0  0  0  0  0
    3.0000    2.5981    0.0000 C   0  0  0  0  0  0  0  0  0  0  0  0
    3.7500    3.8971    0.0000 C   0  0  0  0  0  0  0  0  0  0  0  0
    5.2500    3.8971    0.0000 C   0  0  0  0  0  0  0  0  0  0  0  0
    6.0000    2.5981    0.0000 C   0  0  0  0  0  0  0  0  0  0  0  0
  1  2  1  0
  2  3  2  3
  3  4  1  0
  4  5  1  0
  5  6  1  0
  6  7  2  0
  7  8  1  0
  8  9  2  0
  9 10  1  0
 10 11  1  0
 11 12  2  0
 11 13  1  0
 13 14  1  0
 14 15  2  0
 15 16  1  0
 16 17  2  0
 17 18  1  0
 18 19  1  0
 19 20  1  0
 20 21  1  0
 21 22  1  0
 22 23  1  0
 23 24  2  0
 23 25  1  0
 25 26  1  0
 26 27  2  0
 27 28  1  0
 28 29  2  0
 29 30  1  0
 30 31  2  0
 22 32  1  0
 32 33  2  0
  9 34  1  0
 34 35  2  0
 35 36  1  0
 36 37  2  0
 37 38  1  0
 38 39  2  0
 39  6  1  0
 18 14  1  0
 32 19  1  0
 39 34  1  0
 31 26  1  0
M  END
>  <Title>  (345) 
idAALIgen14

$$$$

     RDKit          2D

 40 45  0  0  0  0  0  0  0  0999 V2000
   -1.3240   -6.3062    0.0000 C   0  0  0  0  0  0  0  0  0  0  0  0
   -0.7500   -4.9204    0.0000 C   0  0  0  0  0  0  0  0  0  0  0  0
    0.7500   -4.9204    0.0000 C   0  0  0  0  0  0  0  0  0  0  0  0
    1.8107   -3.8597    0.0000 C   0  0  0  0  0  0  0  0  0  0  0  0
    1.8107   -2.3597    0.0000 C   0  0  0  0  0  0  0  0  0  0  0  0
    3.1965   -1.7857    0.0000 C   0  0  0  0  0  0  0  0  0  0  0  0
    3.3923   -0.2985    0.0000 O   0  0  0  0  0  0  0  0  0  0  0  0
    4.3865   -2.6988    0.0000 N   0  0  0  0  0  0  0  0  0  0  0  0
    5.7723   -2.1248    0.0000 C   0  0  0  0  0  0  0  0  0  0  0  0
    6.1225   -0.6662    0.0000 N   0  0  0  0  0  0  0  0  0  0  0  0
    7.6179   -0.5485    0.0000 N   0  0  0  0  0  0  0  0  0  0  0  0
    8.1919   -1.9344    0.0000 N   0  0  0  0  0  0  0  0  0  0  0  0
    7.0513   -2.9085    0.0000 N   0  0  0  0  0  0  0  0  0  0  0  0
    7.1690   -4.4039    0.0000 C   0  0  0  0  0  0  0  0  0  0  0  0
    8.4479   -5.1877    0.0000 C   0  0  0  0  0  0  0  0  0  0  0  0
    8.0978   -6.6462    0.0000 C   0  0  0  0  0  0  0  0  0  0  0  0
    6.6024   -6.7639    0.0000 C   0  0  0  0  0  0  0  0  0  0  0  0
    5.8186   -8.0429    0.0000 C   0  0  0  0  0  0  0  0  0  0  0  0
    6.5344   -9.3611    0.0000 O   0  0  0  0  0  0  0  0  0  0  0  0
    4.3192   -8.0036    0.0000 N   0  0  0  0  0  0  0  0  0  0  0  0
    3.5354   -9.2826    0.0000 C   0  0  0  0  0  0  0  0  0  0  0  0
    2.0359   -9.2433    0.0000 N   0  0  0  0  0  0  0  0  0  0  0  0
    1.2522  -10.5223    0.0000 N   0  0  0  0  0  0  0  0  0  0  0  0
    1.9679  -11.8405    0.0000 N   0  0  0  0  0  0  0  0  0  0  0  0
    3.4674  -11.8797    0.0000 N   0  0  0  0  0  0  0  0  0  0  0  0
    4.2512  -10.6008    0.0000 N   0  0  0  0  0  0  0  0  0  0  0  0
    6.0284   -5.3781    0.0000 C   0  0  0  0  0  0  0  0  0  0  0  0
    4.5698   -5.0279    0.0000 O   0  0  0  0  0  0  0  0  0  0  0  0
    0.7500   -1.2990    0.0000 C   0  0  0  0  0  0  0  0  0  0  0  0
    1.5000    0.0000    0.0000 C   0  0  0  0  0  0  0  0  0  0  0  0
    0.7500    1.2990    0.0000 C   0  0  0  0  0  0  0  0  0  0  0  0
   -0.7500    1.2990    0.0000 C   0  0  0  0  0  0  0  0  0  0  0  0
   -1.5000    0.0000    0.0000 C   0  0  0  0  0  0  0  0  0  0  0  0
   -0.7500   -1.2990    0.0000 C   0  0  0  0  0  0  0  0  0  0  0  0
   -1.8107   -2.3597    0.0000 C   0  0  0  0  0  0  0  0  0  0  0  0
   -3.1097   -1.6097    0.0000 C   0  0  0  0  0  0  0  0  0  0  0  0
   -4.4087   -2.3597    0.0000 C   0  0  0  0  0  0  0  0  0  0  0  0
   -4.4087   -3.8597    0.0000 C   0  0  0  0  0  0  0  0  0  0  0  0
   -3.1097   -4.6097    0.0000 C   0  0  0  0  0  0  0  0  0  0  0  0
   -1.8107   -3.8597    0.0000 C   0  0  0  0  0  0  0  0  0  0  0  0
  1  2  1  0
  2  3  1  0
  3  4  1  0
  4  5  1  0
  5  6  1  0
  6  7  2  0
  6  8  1  0
  8  9  1  0
  9 10  2  0
 10 11  1  0
 11 12  2  0
 12 13  1  0
 13 14  1  0
 14 15  2  0
 15 16  1  0
 16 17  2  0
 17 18  1  0
 18 19  2  0
 18 20  1  0
 20 21  1  0
 21 22  2  0
 22 23  1  0
 23 24  2  0
 24 25  1  0
 25 26  2  0
 17 27  1  0
 27 28  2  0
  5 29  1  0
 29 30  2  0
 30 31  1  0
 31 32  2  0
 32 33  1  0
 33 34  2  0
 34 35  1  0
 35 36  2  0
 36 37  1  0
 37 38  2  0
 38 39  1  0
 39 40  2  0
 40  2  1  0
 13  9  1  0
 27 14  1  0
 34 29  1  0
 40 35  1  0
 26 21  1  0
M  END
>  <Title>  (346) 
idAALJgen14

$$$$

     RDKit          2D

 18 18  0  0  0  0  0  0  0  0999 V2000
   12.7500   -1.2990    0.0000 C   0  0  0  0  0  0  0  0  0  0  0  0
   12.0000   -2.5981    0.0000 C   0  0  0  0  0  0  0  0  0  0  0  0
   10.5000   -2.5981    0.0000 C   0  0  0  0  0  0  0  0  0  0  0  0
    9.7500   -3.8971    0.0000 C   0  0  0  0  0  0  0  0  0  0  0  0
   10.5000   -5.1962    0.0000 C   0  0  0  0  0  0  0  0  0  0  0  0
    8.2500   -3.8971    0.0000 N   0  0  0  0  0  0  0  0  0  0  0  0
    7.5000   -2.5981    0.0000 C   0  0  0  0  0  0  0  0  0  0  0  0
    6.0000   -2.5981    0.0000 C   0  0  0  0  0  0  0  0  0  0  0  0
    5.2500   -1.2990    0.0000 C   0  0  0  0  0  0  0  0  0  0  0  0
    6.0000    0.0000    0.0000 O   0  0  0  0  0  0  0  0  0  0  0  0
    3.7500   -1.2990    0.0000 N   0  0  0  0  0  0  0  0  0  0  0  0
    3.0000    0.0000    0.0000 C   0  0  0  0  0  0  0  0  0  0  0  0
    1.5000    0.0000    0.0000 C   0  0  0  0  0  0  0  0  0  0  0  0
    0.7500   -1.2990    0.0000 C   0  0  0  0  0  0  0  0  0  0  0  0
   -0.7500   -1.2990    0.0000 C   0  0  0  0  0  0  0  0  0  0  0  0
   -1.5000    0.0000    0.0000 C   0  0  0  0  0  0  0  0  0  0  0  0
   -0.7500    1.2990    0.0000 N   0  0  0  0  0  0  0  0  0  0  0  0
    0.7500    1.2990    0.0000 C   0  0  0  0  0  0  0  0  0  0  0  0
  1  2  1  0
  2  3  1  0
  3  4  1  0
  4  5  1  0
  4  6  1  0
  6  7  1  0
  7  8  1  0
  8  9  1  0
  9 10  2  0
  9 11  1  0
 11 12  1  0
 12 13  1  0
 13 14  2  0
 14 15  1  0
 15 16  2  0
 16 17  1  0
 17 18  2  0
 18 13  1  0
M  END
>  <Title>  (347) 
idAALKgen14

$$$$

     RDKit          2D

 23 26  0  0  0  0  0  0  0  0999 V2000
   -0.0000   -6.0850    0.0000 C   0  0  0  0  0  0  0  0  0  0  0  0
   -0.0000   -4.5850    0.0000 C   0  0  0  0  0  0  0  0  0  0  0  0
    1.3515   -3.9342    0.0000 C   0  0  0  0  0  0  0  0  0  0  0  0
    1.6852   -2.4718    0.0000 C   0  0  0  0  0  0  0  0  0  0  0  0
    3.1476   -2.1380    0.0000 O   0  0  0  0  0  0  0  0  0  0  0  0
    4.1679   -3.2376    0.0000 C   0  0  0  0  0  0  0  0  0  0  0  0
    3.7258   -4.6709    0.0000 C   0  0  0  0  0  0  0  0  0  0  0  0
    4.7460   -5.7705    0.0000 C   0  0  0  0  0  0  0  0  0  0  0  0
    6.2084   -5.4367    0.0000 C   0  0  0  0  0  0  0  0  0  0  0  0
    6.6505   -4.0034    0.0000 C   0  0  0  0  0  0  0  0  0  0  0  0
    5.6303   -2.9038    0.0000 C   0  0  0  0  0  0  0  0  0  0  0  0
    0.7500   -1.2990    0.0000 C   0  0  0  0  0  0  0  0  0  0  0  0
    1.5000    0.0000    0.0000 C   0  0  0  0  0  0  0  0  0  0  0  0
    0.7500    1.2990    0.0000 C   0  0  0  0  0  0  0  0  0  0  0  0
   -0.7500    1.2990    0.0000 C   0  0  0  0  0  0  0  0  0  0  0  0
   -1.5000    0.0000    0.0000 C   0  0  0  0  0  0  0  0  0  0  0  0
   -0.7500   -1.2990    0.0000 C   0  0  0  0  0  0  0  0  0  0  0  0
   -1.6852   -2.4718    0.0000 C   0  0  0  0  0  0  0  0  0  0  0  0
   -3.1186   -2.0297    0.0000 C   0  0  0  0  0  0  0  0  0  0  0  0
   -4.2182   -3.0499    0.0000 C   0  0  0  0  0  0  0  0  0  0  0  0
   -3.8844   -4.5123    0.0000 C   0  0  0  0  0  0  0  0  0  0  0  0
   -2.4510   -4.9544    0.0000 C   0  0  0  0  0  0  0  0  0  0  0  0
   -1.3515   -3.9342    0.0000 C   0  0  0  0  0  0  0  0  0  0  0  0
  1  2  1  0
  2  3  2  0
  3  4  1  0
  4  5  1  0
  5  6  1  0
  6  7  2  0
  7  8  1  0
  8  9  2  0
  9 10  1  0
 10 11  2  0
  4 12  1  0
 12 13  2  0
 13 14  1  0
 14 15  2  0
 15 16  1  0
 16 17  2  0
 17 18  1  0
 18 19  2  0
 19 20  1  0
 20 21  2  0
 21 22  1  0
 22 23  2  0
 23  2  1  0
 11  6  1  0
 17 12  1  0
 23 18  1  0
M  END
>  <Title>  (348) 
idAALLgen14

$$$$

     RDKit          2D

 42 47  0  0  0  0  0  0  0  0999 V2000
   -5.6682   -1.2570    0.0000 C   0  0  0  0  0  0  0  0  0  0  0  0
   -6.1317   -2.6836    0.0000 C   0  0  0  0  0  0  0  0  0  0  0  0
   -7.5583   -3.1471    0.0000 C   0  0  0  0  0  0  0  0  0  0  0  0
   -7.5583   -4.6471    0.0000 C   0  0  0  0  0  0  0  0  0  0  0  0
   -6.1317   -5.1106    0.0000 C   0  0  0  0  0  0  0  0  0  0  0  0
   -5.2500   -3.8971    0.0000 C   0  0  0  0  0  0  0  0  0  0  0  0
   -3.7500   -3.8971    0.0000 C   0  0  0  0  0  0  0  0  0  0  0  0
   -3.0000   -5.1962    0.0000 O   0  0  0  0  0  0  0  0  0  0  0  0
   -3.0000   -2.5981    0.0000 N   0  0  0  0  0  0  0  0  0  0  0  0
   -1.5000   -2.5981    0.0000 C   0  0  0  0  0  0  0  0  0  0  0  0
   -0.7500   -3.8971    0.0000 C   0  0  0  0  0  0  0  0  0  0  0  0
    0.7500   -3.8971    0.0000 C   0  0  0  0  0  0  0  0  0  0  0  0
    1.5000   -2.5981    0.0000 C   0  0  0  0  0  0  0  0  0  0  0  0
    3.0000   -2.5981    0.0000 C   0  0  0  0  0  0  0  0  0  0  0  0
    3.7500   -1.2990    0.0000 O   0  0  0  0  0  0  0  0  0  0  0  0
    3.7500   -3.8971    0.0000 N   0  0  0  0  0  0  0  0  0  0  0  0
    5.2500   -3.8971    0.0000 C   0  0  0  0  0  0  0  0  0  0  0  0
    6.1317   -2.6836    0.0000 N   0  0  0  0  0  0  0  0  0  0  0  0
    7.5583   -3.1471    0.0000 N   0  0  0  0  0  0  0  0  0  0  0  0
    7.5583   -4.6471    0.0000 N   0  0  0  0  0  0  0  0  0  0  0  0
    6.1317   -5.1106    0.0000 N   0  0  0  0  0  0  0  0  0  0  0  0
    5.6682   -6.5372    0.0000 N   0  0  0  0  0  0  0  0  0  0  0  0
    6.5498   -7.7508    0.0000 C   0  0  0  0  0  0  0  0  0  0  0  0
    5.6682   -8.9643    0.0000 C   0  0  0  0  0  0  0  0  0  0  0  0
    4.2416   -8.5008    0.0000 N   0  0  0  0  0  0  0  0  0  0  0  0
    3.0280   -9.3824    0.0000 C   0  0  0  0  0  0  0  0  0  0  0  0
    3.1848  -10.8742    0.0000 O   0  0  0  0  0  0  0  0  0  0  0  0
    1.6577   -8.7723    0.0000 N   0  0  0  0  0  0  0  0  0  0  0  0
    0.4442   -9.6540    0.0000 C   0  0  0  0  0  0  0  0  0  0  0  0
   -0.9261   -9.0439    0.0000 N   0  0  0  0  0  0  0  0  0  0  0  0
   -2.1396   -9.9256    0.0000 N   0  0  0  0  0  0  0  0  0  0  0  0
   -1.9829  -11.4174    0.0000 N   0  0  0  0  0  0  0  0  0  0  0  0
   -0.6125  -12.0275    0.0000 N   0  0  0  0  0  0  0  0  0  0  0  0
    0.6010  -11.1458    0.0000 N   0  0  0  0  0  0  0  0  0  0  0  0
    4.2416   -7.0008    0.0000 C   0  0  0  0  0  0  0  0  0  0  0  0
    3.0280   -6.1191    0.0000 O   0  0  0  0  0  0  0  0  0  0  0  0
    0.7500   -1.2990    0.0000 C   0  0  0  0  0  0  0  0  0  0  0  0
    1.5000    0.0000    0.0000 C   0  0  0  0  0  0  0  0  0  0  0  0
    0.7500    1.2990    0.0000 C   0  0  0  0  0  0  0  0  0  0  0  0
   -0.7500    1.2990    0.0000 C   0  0  0  0  0  0  0  0  0  0  0  0
   -1.5000    0.0000    0.0000 C   0  0  0  0  0  0  0  0  0  0  0  0
   -0.7500   -1.2990    0.0000 C   0  0  0  0  0  0  0  0  0  0  0  0
  1  2  1  0
  2  3  1  0
  3  4  1  0
  4  5  1  0
  5  6  1  0
  6  7  1  0
  7  8  2  0
  7  9  1  0
  9 10  1  0
 10 11  2  0
 11 12  1  0
 12 13  2  0
 13 14  1  0
 14 15  2  0
 14 16  1  0
 16 17  1  0
 17 18  2  0
 18 19  1  0
 19 20  2  0
 20 21  1  0
 21 22  1  0
 22 23  1  0
 23 24  1  0
 24 25  1  0
 25 26  1  0
 26 27  2  0
 26 28  1  0
 28 29  1  0
 29 30  2  0
 30 31  1  0
 31 32  2  0
 32 33  1  0
 33 34  2  0
 25 35  1  0
 35 36  2  0
 13 37  1  0
 37 38  2  0
 38 39  1  0
 39 40  2  0
 40 41  1  0
 41 42  2  0
  6  2  1  0
 42 10  1  0
 21 17  1  0
 35 22  1  0
 42 37  1  0
 34 29  1  0
M  END
>  <Title>  (349) 
idAALMgen14

$$$$

     RDKit          2D

  4  3  0  0  0  0  0  0  0  0999 V2000
    0.0000    0.0000    0.0000 C   0  0  0  0  0  0  0  0  0  0  0  0
    1.2990    0.7500    0.0000 C   0  0  0  0  0  0  0  0  0  0  0  0
    2.5981   -0.0000    0.0000 C   0  0  0  0  0  0  0  0  0  0  0  0
    3.8971   -0.7500    0.0000 N   0  0  0  0  0  0  0  0  0  0  0  0
  1  2  1  0
  2  3  1  0
  3  4  3  0
M  END
>  <Title>  (350) 
idAALNgen14

$$$$

     RDKit          2D

 40 44  0  0  0  0  0  0  0  0999 V2000
   -6.6505   -4.0034    0.0000 C   0  0  0  0  0  0  0  0  0  0  0  0
   -5.6303   -2.9038    0.0000 C   0  0  0  0  0  0  0  0  0  0  0  0
   -6.0724   -1.4704    0.0000 O   0  0  0  0  0  0  0  0  0  0  0  0
   -4.1679   -3.2376    0.0000 N   0  0  0  0  0  0  0  0  0  0  0  0
   -3.1476   -2.1380    0.0000 C   0  0  0  0  0  0  0  0  0  0  0  0
   -1.6852   -2.4718    0.0000 C   0  0  0  0  0  0  0  0  0  0  0  0
   -1.3515   -3.9342    0.0000 C   0  0  0  0  0  0  0  0  0  0  0  0
   -0.0000   -4.5850    0.0000 C   0  0  0  0  0  0  0  0  0  0  0  0
   -0.0000   -6.0850    0.0000 C   0  0  0  0  0  0  0  0  0  0  0  0
    1.2990   -6.8350    0.0000 O   0  0  0  0  0  0  0  0  0  0  0  0
   -1.2990   -6.8350    0.0000 N   0  0  0  0  0  0  0  0  0  0  0  0
   -1.2990   -8.3350    0.0000 C   0  0  0  0  0  0  0  0  0  0  0  0
   -0.0855   -9.2167    0.0000 N   0  0  0  0  0  0  0  0  0  0  0  0
   -0.5490  -10.6433    0.0000 N   0  0  0  0  0  0  0  0  0  0  0  0
   -2.0490  -10.6433    0.0000 N   0  0  0  0  0  0  0  0  0  0  0  0
   -2.5126   -9.2167    0.0000 N   0  0  0  0  0  0  0  0  0  0  0  0
   -3.9391   -8.7532    0.0000 N   0  0  0  0  0  0  0  0  0  0  0  0
   -5.1527   -9.6348    0.0000 C   0  0  0  0  0  0  0  0  0  0  0  0
   -6.3662   -8.7532    0.0000 C   0  0  0  0  0  0  0  0  0  0  0  0
   -5.9027   -7.3266    0.0000 N   0  0  0  0  0  0  0  0  0  0  0  0
   -6.7844   -6.1130    0.0000 C   0  0  0  0  0  0  0  0  0  0  0  0
   -6.1742   -4.7427    0.0000 O   0  0  0  0  0  0  0  0  0  0  0  0
   -8.2761   -6.2698    0.0000 N   0  0  0  0  0  0  0  0  0  0  0  0
   -9.1578   -5.0563    0.0000 C   0  0  0  0  0  0  0  0  0  0  0  0
   -8.5477   -3.6860    0.0000 N   0  0  0  0  0  0  0  0  0  0  0  0
   -9.4294   -2.4725    0.0000 N   0  0  0  0  0  0  0  0  0  0  0  0
  -10.9212   -2.6293    0.0000 N   0  0  0  0  0  0  0  0  0  0  0  0
  -11.5313   -3.9996    0.0000 N   0  0  0  0  0  0  0  0  0  0  0  0
  -10.6496   -5.2131    0.0000 N   0  0  0  0  0  0  0  0  0  0  0  0
   -4.4027   -7.3266    0.0000 C   0  0  0  0  0  0  0  0  0  0  0  0
   -3.5210   -6.1130    0.0000 O   0  0  0  0  0  0  0  0  0  0  0  0
    1.3515   -3.9342    0.0000 C   0  0  0  0  0  0  0  0  0  0  0  0
    2.5242   -4.8694    0.0000 O   0  0  0  0  0  0  0  0  0  0  0  0
    1.6852   -2.4718    0.0000 O   0  0  0  0  0  0  0  0  0  0  0  0
    0.7500   -1.2990    0.0000 C   0  0  0  0  0  0  0  0  0  0  0  0
    1.5000    0.0000    0.0000 C   0  0  0  0  0  0  0  0  0  0  0  0
    0.7500    1.2990    0.0000 C   0  0  0  0  0  0  0  0  0  0  0  0
   -0.7500    1.2990    0.0000 C   0  0  0  0  0  0  0  0  0  0  0  0
   -1.5000    0.0000    0.0000 C   0  0  0  0  0  0  0  0  0  0  0  0
   -0.7500   -1.2990    0.0000 C   0  0  0  0  0  0  0  0  0  0  0  0
  1  2  1  0
  2  3  2  0
  2  4  1  0
  4  5  1  0
  5  6  1  0
  6  7  2  0
  7  8  1  0
  8  9  1  0
  9 10  2  0
  9 11  1  0
 11 12  1  0
 12 13  2  0
 13 14  1  0
 14 15  2  0
 15 16  1  0
 16 17  1  0
 17 18  1  0
 18 19  1  0
 19 20  1  0
 20 21  1  0
 21 22  2  0
 21 23  1  0
 23 24  1  0
 24 25  2  0
 25 26  1  0
 26 27  2  0
 27 28  1  0
 28 29  2  0
 20 30  1  0
 30 31  2  0
  8 32  1  0
 32 33  2  0
 32 34  1  0
 34 35  1  0
 35 36  2  0
 36 37  1  0
 37 38  2  0
 38 39  1  0
 39 40  2  0
 40  6  1  0
 16 12  1  0
 30 17  1  0
 40 35  1  0
 29 24  1  0
M  END
>  <Title>  (351) 
idAALOgen14

$$$$

     RDKit          2D

 12 12  0  0  0  0  0  0  0  0999 V2000
    7.5000   -2.5981    0.0000 C   0  0  0  0  0  0  0  0  0  0  0  0
    6.0000   -2.5981    0.0000 C   0  0  0  0  0  0  0  0  0  0  0  0
    5.2500   -1.2990    0.0000 C   0  0  0  0  0  0  0  0  0  0  0  0
    3.7500   -1.2990    0.0000 C   0  0  0  0  0  0  0  0  0  0  0  0
    3.0000   -2.5981    0.0000 O   0  0  0  0  0  0  0  0  0  0  0  0
    3.0000    0.0000    0.0000 N   0  0  0  0  0  0  0  0  0  0  0  0
    1.5000    0.0000    0.0000 C   0  0  0  0  0  0  0  0  0  0  0  0
    0.7500   -1.2990    0.0000 C   0  0  0  0  0  0  0  0  0  0  0  0
   -0.7500   -1.2990    0.0000 C   0  0  0  0  0  0  0  0  0  0  0  0
   -1.5000    0.0000    0.0000 C   0  0  0  0  0  0  0  0  0  0  0  0
   -0.7500    1.2990    0.0000 C   0  0  0  0  0  0  0  0  0  0  0  0
    0.7500    1.2990    0.0000 C   0  0  0  0  0  0  0  0  0  0  0  0
  1  2  1  0
  2  3  1  0
  3  4  1  0
  4  5  2  0
  4  6  1  0
  6  7  1  0
  7  8  2  0
  8  9  1  0
  9 10  2  0
 10 11  1  0
 11 12  2  0
 12  7  1  0
M  END
>  <Title>  (352) 
idAALPgen14

$$$$

     RDKit          2D

 10 10  0  0  0  0  0  0  0  0999 V2000
    8.7760   -0.0000    0.0000 O   0  0  0  0  0  0  0  0  0  0  0  0
    7.2760   -0.0000    0.0000 C   0  0  0  0  0  0  0  0  0  0  0  0
    5.7760   -0.0000    0.0000 C   0  0  0  0  0  0  0  0  0  0  0  0
    4.2760   -0.0000    0.0000 C   0  0  0  0  0  0  0  0  0  0  0  0
    2.7760    0.0000    0.0000 C   0  0  0  0  0  0  0  0  0  0  0  0
    1.2760    0.0000    0.0000 C   0  0  0  0  0  0  0  0  0  0  0  0
    0.3943    1.2135    0.0000 C   0  0  0  0  0  0  0  0  0  0  0  0
   -1.0323    0.7500    0.0000 C   0  0  0  0  0  0  0  0  0  0  0  0
   -1.0323   -0.7500    0.0000 C   0  0  0  0  0  0  0  0  0  0  0  0
    0.3943   -1.2135    0.0000 C   0  0  0  0  0  0  0  0  0  0  0  0
  1  2  1  0
  2  3  3  0
  3  4  1  0
  4  5  3  0
  5  6  1  0
  6  7  2  0
  7  8  1  0
  8  9  1  0
  9 10  2  0
 10  6  1  0
M  END
>  <Title>  (353) 
idAALQgen14

$$$$

     RDKit          2D

  6  6  0  0  0  0  0  0  0  0999 V2000
    2.7760    0.0000    0.0000 C   0  0  0  0  0  0  0  0  0  0  0  0
    1.2760    0.0000    0.0000 C   0  0  0  0  0  0  0  0  0  0  0  0
    0.3943    1.2135    0.0000 C   0  0  0  0  0  0  0  0  0  0  0  0
   -1.0323    0.7500    0.0000 C   0  0  0  0  0  0  0  0  0  0  0  0
   -1.0323   -0.7500    0.0000 C   0  0  0  0  0  0  0  0  0  0  0  0
    0.3943   -1.2135    0.0000 C   0  0  0  0  0  0  0  0  0  0  0  0
  1  2  1  0
  2  3  2  0
  3  4  1  0
  4  5  2  0
  5  6  1  0
  6  2  1  0
M  END
>  <Title>  (354) 
idAALRgen14

$$$$

     RDKit          2D

  5  4  0  0  0  0  0  0  0  0999 V2000
    0.0000    0.0000    0.0000 C   0  0  0  0  0  0  0  0  0  0  0  0
    1.2990    0.7500    0.0000 O   0  0  0  0  0  0  0  0  0  0  0  0
    2.5981   -0.0000    0.0000 C   0  0  0  0  0  0  0  0  0  0  0  0
    3.8971    0.7500    0.0000 C   0  0  0  0  0  0  0  0  0  0  0  0
    2.5981   -1.5000    0.0000 C   0  0  0  0  0  0  0  0  0  0  0  0
  1  2  1  0
  2  3  1  0
  3  4  1  0
  3  5  1  0
M  END
>  <Title>  (355) 
idAALSgen14

$$$$

     RDKit          2D

 36 40  0  0  0  0  0  0  0  0999 V2000
   -3.1476   -2.1380    0.0000 C   0  0  0  0  0  0  0  0  0  0  0  0
   -1.6852   -2.4718    0.0000 C   0  0  0  0  0  0  0  0  0  0  0  0
   -1.3515   -3.9342    0.0000 C   0  0  0  0  0  0  0  0  0  0  0  0
   -0.0000   -4.5850    0.0000 C   0  0  0  0  0  0  0  0  0  0  0  0
    1.3515   -3.9342    0.0000 C   0  0  0  0  0  0  0  0  0  0  0  0
    1.6852   -2.4718    0.0000 N   0  0  0  0  0  0  0  0  0  0  0  0
    3.1476   -2.1380    0.0000 C   0  0  0  0  0  0  0  0  0  0  0  0
    3.5898   -0.7046    0.0000 O   0  0  0  0  0  0  0  0  0  0  0  0
    4.1679   -3.2376    0.0000 N   0  0  0  0  0  0  0  0  0  0  0  0
    5.6303   -2.9038    0.0000 C   0  0  0  0  0  0  0  0  0  0  0  0
    6.2198   -1.5245    0.0000 N   0  0  0  0  0  0  0  0  0  0  0  0
    7.7138   -1.6590    0.0000 N   0  0  0  0  0  0  0  0  0  0  0  0
    8.0476   -3.1214    0.0000 N   0  0  0  0  0  0  0  0  0  0  0  0
    6.7599   -3.8907    0.0000 N   0  0  0  0  0  0  0  0  0  0  0  0
    6.6254   -5.3847    0.0000 N   0  0  0  0  0  0  0  0  0  0  0  0
    7.7550   -6.3716    0.0000 C   0  0  0  0  0  0  0  0  0  0  0  0
    7.1655   -7.7509    0.0000 C   0  0  0  0  0  0  0  0  0  0  0  0
    5.6715   -7.6164    0.0000 N   0  0  0  0  0  0  0  0  0  0  0  0
    4.6846   -8.7460    0.0000 C   0  0  0  0  0  0  0  0  0  0  0  0
    5.1694  -10.1655    0.0000 O   0  0  0  0  0  0  0  0  0  0  0  0
    3.2129   -8.4561    0.0000 N   0  0  0  0  0  0  0  0  0  0  0  0
    2.2260   -9.5857    0.0000 C   0  0  0  0  0  0  0  0  0  0  0  0
    0.7543   -9.2959    0.0000 N   0  0  0  0  0  0  0  0  0  0  0  0
   -0.2326  -10.4255    0.0000 N   0  0  0  0  0  0  0  0  0  0  0  0
    0.2522  -11.8450    0.0000 N   0  0  0  0  0  0  0  0  0  0  0  0
    1.7239  -12.1348    0.0000 N   0  0  0  0  0  0  0  0  0  0  0  0
    2.7108  -11.0052    0.0000 N   0  0  0  0  0  0  0  0  0  0  0  0
    5.3378   -6.1540    0.0000 C   0  0  0  0  0  0  0  0  0  0  0  0
    3.9585   -5.5645    0.0000 O   0  0  0  0  0  0  0  0  0  0  0  0
    0.7500   -1.2990    0.0000 C   0  0  0  0  0  0  0  0  0  0  0  0
    1.5000    0.0000    0.0000 C   0  0  0  0  0  0  0  0  0  0  0  0
    0.7500    1.2990    0.0000 C   0  0  0  0  0  0  0  0  0  0  0  0
   -0.7500    1.2990    0.0000 C   0  0  0  0  0  0  0  0  0  0  0  0
   -1.5000    2.5981    0.0000 O   0  0  0  0  0  0  0  0  0  0  0  0
   -1.5000    0.0000    0.0000 C   0  0  0  0  0  0  0  0  0  0  0  0
   -0.7500   -1.2990    0.0000 C   0  0  0  0  0  0  0  0  0  0  0  0
  1  2  1  0
  2  3  1  0
  3  4  1  0
  4  5  1  0
  5  6  1  0
  6  7  1  0
  7  8  2  0
  7  9  1  0
  9 10  1  0
 10 11  2  0
 11 12  1  0
 12 13  2  0
 13 14  1  0
 14 15  1  0
 15 16  1  0
 16 17  1  0
 17 18  1  0
 18 19  1  0
 19 20  2  0
 19 21  1  0
 21 22  1  0
 22 23  2  0
 23 24  1  0
 24 25  2  0
 25 26  1  0
 26 27  2  0
 18 28  1  0
 28 29  2  0
  6 30  1  0
 30 31  2  0
 31 32  1  0
 32 33  2  0
 33 34  1  0
 33 35  1  0
 35 36  2  0
 36  2  1  0
 14 10  1  0
 28 15  1  0
 36 30  1  0
 27 22  1  0
M  END
>  <Title>  (356) 
idAALTgen14

$$$$

     RDKit          2D

 10 10  0  0  0  0  0  0  0  0999 V2000
    7.5000    0.0000    0.0000 C   0  0  0  0  0  0  0  0  0  0  0  0
    6.0000    0.0000    0.0000 C   0  0  0  0  0  0  0  0  0  0  0  0
    4.5000    0.0000    0.0000 C   0  0  0  0  0  0  0  0  0  0  0  0
    3.0000    0.0000    0.0000 C   0  0  0  0  0  0  0  0  0  0  0  0
    1.5000    0.0000    0.0000 C   0  0  0  0  0  0  0  0  0  0  0  0
    0.7500   -1.2990    0.0000 C   0  0  0  0  0  0  0  0  0  0  0  0
   -0.7500   -1.2990    0.0000 C   0  0  0  0  0  0  0  0  0  0  0  0
   -1.5000    0.0000    0.0000 C   0  0  0  0  0  0  0  0  0  0  0  0
   -0.7500    1.2990    0.0000 N   0  0  0  0  0  0  0  0  0  0  0  0
    0.7500    1.2990    0.0000 C   0  0  0  0  0  0  0  0  0  0  0  0
  1  2  3  0
  2  3  1  0
  3  4  3  0
  4  5  1  0
  5  6  2  0
  6  7  1  0
  7  8  2  0
  8  9  1  0
  9 10  2  0
 10  5  1  0
M  END
>  <Title>  (357) 
idAALUgen14

$$$$

     RDKit          2D

 34 38  0  0  0  0  0  0  0  0999 V2000
   10.0051   -0.5013    0.0000 C   0  0  0  0  0  0  0  0  0  0  0  0
    8.5134   -0.6581    0.0000 C   0  0  0  0  0  0  0  0  0  0  0  0
    7.7634   -1.9571    0.0000 C   0  0  0  0  0  0  0  0  0  0  0  0
    6.2961   -1.6453    0.0000 C   0  0  0  0  0  0  0  0  0  0  0  0
    5.1814   -2.6490    0.0000 C   0  0  0  0  0  0  0  0  0  0  0  0
    5.4933   -4.1162    0.0000 C   0  0  0  0  0  0  0  0  0  0  0  0
    6.9199   -4.5797    0.0000 O   0  0  0  0  0  0  0  0  0  0  0  0
    4.3786   -5.1199    0.0000 N   0  0  0  0  0  0  0  0  0  0  0  0
    4.6904   -6.5871    0.0000 C   0  0  0  0  0  0  0  0  0  0  0  0
    6.0607   -7.1972    0.0000 N   0  0  0  0  0  0  0  0  0  0  0  0
    5.9040   -8.6890    0.0000 N   0  0  0  0  0  0  0  0  0  0  0  0
    4.4367   -9.0009    0.0000 N   0  0  0  0  0  0  0  0  0  0  0  0
    3.6867   -7.7018    0.0000 N   0  0  0  0  0  0  0  0  0  0  0  0
    2.1950   -7.5450    0.0000 C   0  0  0  0  0  0  0  0  0  0  0  0
    1.4450   -6.2460    0.0000 C   0  0  0  0  0  0  0  0  0  0  0  0
   -0.0223   -6.5579    0.0000 C   0  0  0  0  0  0  0  0  0  0  0  0
   -0.1791   -8.0497    0.0000 C   0  0  0  0  0  0  0  0  0  0  0  0
   -1.4781   -8.7997    0.0000 C   0  0  0  0  0  0  0  0  0  0  0  0
   -1.4781  -10.2997    0.0000 O   0  0  0  0  0  0  0  0  0  0  0  0
   -2.7771   -8.0497    0.0000 N   0  0  0  0  0  0  0  0  0  0  0  0
   -4.0762   -8.7997    0.0000 C   0  0  0  0  0  0  0  0  0  0  0  0
   -4.0762  -10.2997    0.0000 N   0  0  0  0  0  0  0  0  0  0  0  0
   -5.3752  -11.0497    0.0000 N   0  0  0  0  0  0  0  0  0  0  0  0
   -6.6743  -10.2997    0.0000 N   0  0  0  0  0  0  0  0  0  0  0  0
   -6.6743   -8.7997    0.0000 N   0  0  0  0  0  0  0  0  0  0  0  0
   -5.3752   -8.0497    0.0000 N   0  0  0  0  0  0  0  0  0  0  0  0
    1.1913   -8.6598    0.0000 C   0  0  0  0  0  0  0  0  0  0  0  0
    1.5031  -10.1270    0.0000 O   0  0  0  0  0  0  0  0  0  0  0  0
    6.1393   -0.1535    0.0000 C   0  0  0  0  0  0  0  0  0  0  0  0
    4.9258    0.7282    0.0000 C   0  0  0  0  0  0  0  0  0  0  0  0
    5.0826    2.2200    0.0000 C   0  0  0  0  0  0  0  0  0  0  0  0
    6.4529    2.8301    0.0000 C   0  0  0  0  0  0  0  0  0  0  0  0
    7.6664    1.9484    0.0000 C   0  0  0  0  0  0  0  0  0  0  0  0
    7.5097    0.4566    0.0000 C   0  0  0  0  0  0  0  0  0  0  0  0
  1  2  1  0
  2  3  2  0
  3  4  1  0
  4  5  1  0
  5  6  1  0
  6  7  2  0
  6  8  1  0
  8  9  1  0
  9 10  2  0
 10 11  1  0
 11 12  2  0
 12 13  1  0
 13 14  1  0
 14 15  2  0
 15 16  1  0
 16 17  2  0
 17 18  1  0
 18 19  2  0
 18 20  1  0
 20 21  1  0
 21 22  2  0
 22 23  1  0
 23 24  2  0
 24 25  1  0
 25 26  2  0
 17 27  1  0
 27 28  2  0
  4 29  1  0
 29 30  2  0
 30 31  1  0
 31 32  2  0
 32 33  1  0
 33 34  2  0
 34  2  1  0
 13  9  1  0
 27 14  1  0
 34 29  1  0
 26 21  1  0
M  END
>  <Title>  (358) 
idAALVgen14

$$$$

     RDKit          2D

  9  8  0  0  0  0  0  0  0  0999 V2000
    0.0000    0.0000    0.0000 C   0  0  0  0  0  0  0  0  0  0  0  0
    1.2990    0.7500    0.0000 C   0  0  0  0  0  0  0  0  0  0  0  0
    2.5981   -0.0000    0.0000 C   0  0  0  0  0  0  0  0  0  0  0  0
    3.8971    0.7500    0.0000 C   0  0  0  0  0  0  0  0  0  0  0  0
    2.5981   -1.5000    0.0000 C   0  0  0  0  0  0  0  0  0  0  0  0
    3.8971   -2.2500    0.0000 C   0  0  0  0  0  0  0  0  0  0  0  0
    3.8971   -3.7500    0.0000 C   0  0  0  0  0  0  0  0  0  0  0  0
    5.1962   -1.5000    0.0000 N   0  0  0  0  0  0  0  0  0  0  0  0
    6.4952   -2.2500    0.0000 C   0  0  0  0  0  0  0  0  0  0  0  0
  1  2  1  0
  2  3  1  0
  3  4  1  0
  3  5  1  0
  5  6  1  0
  6  7  1  0
  6  8  1  0
  8  9  1  0
M  END
>  <Title>  (359) 
idAALWgen14

$$$$

     RDKit          2D

  7  6  0  0  0  0  0  0  0  0999 V2000
    0.0000    0.0000    0.0000 C   0  0  0  0  0  0  0  0  0  0  0  0
    1.2990    0.7500    0.0000 C   0  0  0  0  0  0  0  0  0  0  0  0
    2.5981   -0.0000    0.0000 C   0  0  0  0  0  0  0  0  0  0  0  0
    1.2990    2.2500    0.0000 N   0  0  0  0  0  0  0  0  0  0  0  0
    2.5981    3.0000    0.0000 C   0  0  0  0  0  0  0  0  0  0  0  0
    2.5981    4.5000    0.0000 C   0  0  0  0  0  0  0  0  0  0  0  0
    3.8971    2.2500    0.0000 C   0  0  0  0  0  0  0  0  0  0  0  0
  1  2  1  0
  2  3  1  0
  2  4  1  0
  4  5  1  0
  5  6  1  0
  5  7  1  0
M  END
>  <Title>  (360) 
idAALXgen14

$$$$

     RDKit          2D

 11 11  0  0  0  0  0  0  0  0999 V2000
    6.0000   -2.5981    0.0000 C   0  0  0  0  0  0  0  0  0  0  0  0
    5.2500   -1.2990    0.0000 C   0  0  0  0  0  0  0  0  0  0  0  0
    6.0000    0.0000    0.0000 C   0  0  0  0  0  0  0  0  0  0  0  0
    3.7500   -1.2990    0.0000 C   0  0  0  0  0  0  0  0  0  0  0  0
    3.0000    0.0000    0.0000 C   0  0  0  0  0  0  0  0  0  0  0  0
    1.5000    0.0000    0.0000 C   0  0  0  0  0  0  0  0  0  0  0  0
    0.7500   -1.2990    0.0000 C   0  0  0  0  0  0  0  0  0  0  0  0
   -0.7500   -1.2990    0.0000 C   0  0  0  0  0  0  0  0  0  0  0  0
   -1.5000    0.0000    0.0000 C   0  0  0  0  0  0  0  0  0  0  0  0
   -0.7500    1.2990    0.0000 N   0  0  0  0  0  0  0  0  0  0  0  0
    0.7500    1.2990    0.0000 C   0  0  0  0  0  0  0  0  0  0  0  0
  1  2  1  0
  2  3  1  0
  2  4  1  0
  4  5  1  0
  5  6  1  0
  6  7  2  0
  7  8  1  0
  8  9  2  0
  9 10  1  0
 10 11  2  0
 11  6  1  0
M  END
>  <Title>  (361) 
idAALYgen14

$$$$

     RDKit          2D

 40 45  0  0  0  0  0  0  0  0999 V2000
   -3.1771   -5.9156    0.0000 C   0  0  0  0  0  0  0  0  0  0  0  0
   -1.9635   -5.0339    0.0000 C   0  0  0  0  0  0  0  0  0  0  0  0
   -0.7500   -5.9156    0.0000 C   0  0  0  0  0  0  0  0  0  0  0  0
    0.7500   -5.9156    0.0000 C   0  0  0  0  0  0  0  0  0  0  0  0
    1.9635   -5.0339    0.0000 C   0  0  0  0  0  0  0  0  0  0  0  0
    3.1771   -5.9156    0.0000 C   0  0  0  0  0  0  0  0  0  0  0  0
    3.0203   -7.4073    0.0000 C   0  0  0  0  0  0  0  0  0  0  0  0
    4.2338   -8.2890    0.0000 C   0  0  0  0  0  0  0  0  0  0  0  0
    5.6041   -7.6789    0.0000 C   0  0  0  0  0  0  0  0  0  0  0  0
    5.7609   -6.1871    0.0000 N   0  0  0  0  0  0  0  0  0  0  0  0
    4.5474   -5.3055    0.0000 C   0  0  0  0  0  0  0  0  0  0  0  0
    2.4271   -3.6073    0.0000 C   0  0  0  0  0  0  0  0  0  0  0  0
    1.9635   -2.1807    0.0000 C   0  0  0  0  0  0  0  0  0  0  0  0
    3.1771   -1.2990    0.0000 C   0  0  0  0  0  0  0  0  0  0  0  0
    4.6586   -1.5337    0.0000 C   0  0  0  0  0  0  0  0  0  0  0  0
    4.8932   -0.0522    0.0000 C   0  0  0  0  0  0  0  0  0  0  0  0
    6.1068    0.8295    0.0000 C   0  0  0  0  0  0  0  0  0  0  0  0
    5.9500    2.3213    0.0000 O   0  0  0  0  0  0  0  0  0  0  0  0
    7.4771    0.2194    0.0000 N   0  0  0  0  0  0  0  0  0  0  0  0
    8.6906    1.1011    0.0000 C   0  0  0  0  0  0  0  0  0  0  0  0
   10.0609    0.4910    0.0000 N   0  0  0  0  0  0  0  0  0  0  0  0
   11.2744    1.3727    0.0000 N   0  0  0  0  0  0  0  0  0  0  0  0
   11.1177    2.8644    0.0000 N   0  0  0  0  0  0  0  0  0  0  0  0
    9.7473    3.4746    0.0000 N   0  0  0  0  0  0  0  0  0  0  0  0
    8.5338    2.5929    0.0000 N   0  0  0  0  0  0  0  0  0  0  0  0
    3.4117    0.1825    0.0000 C   0  0  0  0  0  0  0  0  0  0  0  0
    2.5300    1.3960    0.0000 O   0  0  0  0  0  0  0  0  0  0  0  0
    0.7500   -1.2990    0.0000 C   0  0  0  0  0  0  0  0  0  0  0  0
    1.5000    0.0000    0.0000 C   0  0  0  0  0  0  0  0  0  0  0  0
    0.7500    1.2990    0.0000 C   0  0  0  0  0  0  0  0  0  0  0  0
   -0.7500    1.2990    0.0000 C   0  0  0  0  0  0  0  0  0  0  0  0
   -1.5000    0.0000    0.0000 C   0  0  0  0  0  0  0  0  0  0  0  0
   -0.7500   -1.2990    0.0000 C   0  0  0  0  0  0  0  0  0  0  0  0
   -1.9635   -2.1807    0.0000 C   0  0  0  0  0  0  0  0  0  0  0  0
   -2.9672   -1.0660    0.0000 C   0  0  0  0  0  0  0  0  0  0  0  0
   -4.4344   -1.3779    0.0000 C   0  0  0  0  0  0  0  0  0  0  0  0
   -4.8980   -2.8045    0.0000 C   0  0  0  0  0  0  0  0  0  0  0  0
   -6.3652   -3.1163    0.0000 O   0  0  0  0  0  0  0  0  0  0  0  0
   -3.8943   -3.9192    0.0000 C   0  0  0  0  0  0  0  0  0  0  0  0
   -2.4271   -3.6073    0.0000 C   0  0  0  0  0  0  0  0  0  0  0  0
  1  2  1  0
  2  3  1  0
  3  4  2  0
  4  5  1  0
  5  6  1  0
  6  7  2  0
  7  8  1  0
  8  9  2  0
  9 10  1  0
 10 11  2  0
  5 12  1  0
 12 13  1  0
 13 14  1  0
 14 15  1  0
 15 16  2  0
 16 17  1  0
 17 18  2  0
 17 19  1  0
 19 20  1  0
 20 21  2  0
 21 22  1  0
 22 23  2  0
 23 24  1  0
 24 25  2  0
 16 26  1  0
 26 27  2  0
 13 28  1  0
 28 29  2  0
 29 30  1  0
 30 31  2  0
 31 32  1  0
 32 33  2  0
 33 34  1  0
 34 35  2  0
 35 36  1  0
 36 37  2  0
 37 38  1  0
 37 39  1  0
 39 40  2  0
 40  2  1  0
 11  6  1  0
 26 14  1  0
 33 28  1  0
 40 34  1  0
 25 20  1  0
M  END
>  <Title>  (362) 
idAALZgen14

$$$$

     RDKit          2D

 36 40  0  0  0  0  0  0  0  0999 V2000
   -3.1965   -1.7857    0.0000 C   0  0  0  0  0  0  0  0  0  0  0  0
   -1.8107   -2.3597    0.0000 C   0  0  0  0  0  0  0  0  0  0  0  0
   -1.8107   -3.8597    0.0000 C   0  0  0  0  0  0  0  0  0  0  0  0
   -0.7500   -4.9204    0.0000 C   0  0  0  0  0  0  0  0  0  0  0  0
    0.7500   -4.9204    0.0000 C   0  0  0  0  0  0  0  0  0  0  0  0
    1.8107   -3.8597    0.0000 C   0  0  0  0  0  0  0  0  0  0  0  0
    1.8107   -2.3597    0.0000 C   0  0  0  0  0  0  0  0  0  0  0  0
    3.1965   -1.7857    0.0000 C   0  0  0  0  0  0  0  0  0  0  0  0
    3.3923   -0.2985    0.0000 O   0  0  0  0  0  0  0  0  0  0  0  0
    4.3865   -2.6988    0.0000 N   0  0  0  0  0  0  0  0  0  0  0  0
    5.7723   -2.1248    0.0000 C   0  0  0  0  0  0  0  0  0  0  0  0
    6.1225   -0.6662    0.0000 N   0  0  0  0  0  0  0  0  0  0  0  0
    7.6179   -0.5485    0.0000 N   0  0  0  0  0  0  0  0  0  0  0  0
    8.1919   -1.9344    0.0000 N   0  0  0  0  0  0  0  0  0  0  0  0
    7.0513   -2.9085    0.0000 N   0  0  0  0  0  0  0  0  0  0  0  0
    7.1690   -4.4039    0.0000 N   0  0  0  0  0  0  0  0  0  0  0  0
    8.4479   -5.1877    0.0000 C   0  0  0  0  0  0  0  0  0  0  0  0
    8.0978   -6.6462    0.0000 C   0  0  0  0  0  0  0  0  0  0  0  0
    6.6024   -6.7639    0.0000 N   0  0  0  0  0  0  0  0  0  0  0  0
    5.8186   -8.0429    0.0000 C   0  0  0  0  0  0  0  0  0  0  0  0
    6.5344   -9.3611    0.0000 O   0  0  0  0  0  0  0  0  0  0  0  0
    4.3192   -8.0036    0.0000 N   0  0  0  0  0  0  0  0  0  0  0  0
    3.5354   -9.2826    0.0000 C   0  0  0  0  0  0  0  0  0  0  0  0
    2.0359   -9.2433    0.0000 N   0  0  0  0  0  0  0  0  0  0  0  0
    1.2522  -10.5223    0.0000 N   0  0  0  0  0  0  0  0  0  0  0  0
    1.9679  -11.8405    0.0000 N   0  0  0  0  0  0  0  0  0  0  0  0
    3.4674  -11.8797    0.0000 N   0  0  0  0  0  0  0  0  0  0  0  0
    4.2512  -10.6008    0.0000 N   0  0  0  0  0  0  0  0  0  0  0  0
    6.0284   -5.3781    0.0000 C   0  0  0  0  0  0  0  0  0  0  0  0
    4.5698   -5.0279    0.0000 O   0  0  0  0  0  0  0  0  0  0  0  0
    0.7500   -1.2990    0.0000 C   0  0  0  0  0  0  0  0  0  0  0  0
    1.5000    0.0000    0.0000 C   0  0  0  0  0  0  0  0  0  0  0  0
    0.7500    1.2990    0.0000 C   0  0  0  0  0  0  0  0  0  0  0  0
   -0.7500    1.2990    0.0000 C   0  0  0  0  0  0  0  0  0  0  0  0
   -1.5000    0.0000    0.0000 C   0  0  0  0  0  0  0  0  0  0  0  0
   -0.7500   -1.2990    0.0000 C   0  0  0  0  0  0  0  0  0  0  0  0
  1  2  1  0
  2  3  2  0
  3  4  1  0
  4  5  1  0
  5  6  1  0
  6  7  1  0
  7  8  1  0
  8  9  2  0
  8 10  1  0
 10 11  1  0
 11 12  2  0
 12 13  1  0
 13 14  2  0
 14 15  1  0
 15 16  1  0
 16 17  1  0
 17 18  1  0
 18 19  1  0
 19 20  1  0
 20 21  2  0
 20 22  1  0
 22 23  1  0
 23 24  2  0
 24 25  1  0
 25 26  2  0
 26 27  1  0
 27 28  2  0
 19 29  1  0
 29 30  2  0
  7 31  1  0
 31 32  2  0
 32 33  1  0
 33 34  2  0
 34 35  1  0
 35 36  2  0
 36  2  1  0
 15 11  1  0
 29 16  1  0
 36 31  1  0
 28 23  1  0
M  END
>  <Title>  (363) 
idAAMAgen14

$$$$

     RDKit          2D

 41 46  0  0  0  0  0  0  0  0999 V2000
   -3.1476   -2.1380    0.0000 C   0  0  0  0  0  0  0  0  0  0  0  0
   -1.6852   -2.4718    0.0000 C   0  0  0  0  0  0  0  0  0  0  0  0
   -1.3515   -3.9342    0.0000 C   0  0  0  0  0  0  0  0  0  0  0  0
   -0.0000   -4.5850    0.0000 C   0  0  0  0  0  0  0  0  0  0  0  0
    1.3515   -3.9342    0.0000 C   0  0  0  0  0  0  0  0  0  0  0  0
    1.6852   -2.4718    0.0000 C   0  0  0  0  0  0  0  0  0  0  0  0
    3.1476   -2.1380    0.0000 C   0  0  0  0  0  0  0  0  0  0  0  0
    3.5898   -0.7046    0.0000 O   0  0  0  0  0  0  0  0  0  0  0  0
    4.1679   -3.2376    0.0000 N   0  0  0  0  0  0  0  0  0  0  0  0
    5.6303   -2.9038    0.0000 C   0  0  0  0  0  0  0  0  0  0  0  0
    6.2198   -1.5245    0.0000 N   0  0  0  0  0  0  0  0  0  0  0  0
    7.7138   -1.6590    0.0000 N   0  0  0  0  0  0  0  0  0  0  0  0
    8.0476   -3.1214    0.0000 N   0  0  0  0  0  0  0  0  0  0  0  0
    6.7599   -3.8907    0.0000 N   0  0  0  0  0  0  0  0  0  0  0  0
    6.6254   -5.3847    0.0000 N   0  0  0  0  0  0  0  0  0  0  0  0
    5.2644   -6.0152    0.0000 C   0  0  0  0  0  0  0  0  0  0  0  0
    5.1299   -7.5092    0.0000 N   0  0  0  0  0  0  0  0  0  0  0  0
    6.3565   -8.3726    0.0000 N   0  0  0  0  0  0  0  0  0  0  0  0
    7.7175   -7.7421    0.0000 N   0  0  0  0  0  0  0  0  0  0  0  0
    7.8520   -6.2481    0.0000 N   0  0  0  0  0  0  0  0  0  0  0  0
    9.2130   -5.6176    0.0000 C   0  0  0  0  0  0  0  0  0  0  0  0
    9.5029   -4.1458    0.0000 C   0  0  0  0  0  0  0  0  0  0  0  0
   10.9922   -3.9667    0.0000 C   0  0  0  0  0  0  0  0  0  0  0  0
   11.6227   -5.3278    0.0000 C   0  0  0  0  0  0  0  0  0  0  0  0
   13.0945   -5.6177    0.0000 C   0  0  0  0  0  0  0  0  0  0  0  0
   14.0814   -4.4881    0.0000 O   0  0  0  0  0  0  0  0  0  0  0  0
   13.5793   -7.0372    0.0000 N   0  0  0  0  0  0  0  0  0  0  0  0
   15.0510   -7.3270    0.0000 C   0  0  0  0  0  0  0  0  0  0  0  0
   15.5358   -8.7465    0.0000 N   0  0  0  0  0  0  0  0  0  0  0  0
   17.0075   -9.0364    0.0000 N   0  0  0  0  0  0  0  0  0  0  0  0
   17.9944   -7.9068    0.0000 N   0  0  0  0  0  0  0  0  0  0  0  0
   17.5096   -6.4873    0.0000 N   0  0  0  0  0  0  0  0  0  0  0  0
   16.0379   -6.1974    0.0000 N   0  0  0  0  0  0  0  0  0  0  0  0
   10.5232   -6.3480    0.0000 C   0  0  0  0  0  0  0  0  0  0  0  0
   10.7022   -7.8373    0.0000 O   0  0  0  0  0  0  0  0  0  0  0  0
    0.7500   -1.2990    0.0000 C   0  0  0  0  0  0  0  0  0  0  0  0
    1.5000    0.0000    0.0000 C   0  0  0  0  0  0  0  0  0  0  0  0
    0.7500    1.2990    0.0000 C   0  0  0  0  0  0  0  0  0  0  0  0
   -0.7500    1.2990    0.0000 C   0  0  0  0  0  0  0  0  0  0  0  0
   -1.5000    0.0000    0.0000 C   0  0  0  0  0  0  0  0  0  0  0  0
   -0.7500   -1.2990    0.0000 C   0  0  0  0  0  0  0  0  0  0  0  0
  1  2  1  0
  2  3  1  0
  3  4  2  0
  4  5  1  0
  5  6  1  0
  6  7  1  0
  7  8  2  0
  7  9  1  0
  9 10  1  0
 10 11  2  0
 11 12  1  0
 12 13  2  0
 13 14  1  0
 14 15  1  0
 15 16  1  0
 16 17  2  0
 17 18  1  0
 18 19  2  0
 19 20  1  0
 20 21  1  0
 21 22  2  0
 22 23  1  0
 23 24  2  0
 24 25  1  0
 25 26  2  0
 25 27  1  0
 27 28  1  0
 28 29  2  0
 29 30  1  0
 30 31  2  0
 31 32  1  0
 32 33  2  0
 24 34  1  0
 34 35  2  0
  6 36  1  0
 36 37  2  0
 37 38  1  0
 38 39  2  0
 39 40  1  0
 40 41  2  0
 41  2  1  0
 14 10  1  0
 20 15  1  0
 34 21  1  0
 41 36  1  0
 33 28  1  0
M  END
>  <Title>  (364) 
idAAMBgen14

$$$$

     RDKit          2D

 37 41  0  0  0  0  0  0  0  0999 V2000
   -5.2500   -3.8971    0.0000 C   0  0  0  0  0  0  0  0  0  0  0  0
   -3.7500   -3.8971    0.0000 C   0  0  0  0  0  0  0  0  0  0  0  0
   -3.0000   -5.1962    0.0000 O   0  0  0  0  0  0  0  0  0  0  0  0
   -3.0000   -2.5981    0.0000 N   0  0  0  0  0  0  0  0  0  0  0  0
   -1.5000   -2.5981    0.0000 C   0  0  0  0  0  0  0  0  0  0  0  0
   -0.7500   -3.8971    0.0000 N   0  0  0  0  0  0  0  0  0  0  0  0
    0.7500   -3.8971    0.0000 S   0  0  0  0  0  4  0  0  0  0  0  0
    1.5000   -2.5981    0.0000 C   0  0  0  0  0  0  0  0  0  0  0  0
    3.0000   -2.5981    0.0000 C   0  0  0  0  0  0  0  0  0  0  0  0
    3.7500   -1.2990    0.0000 O   0  0  0  0  0  0  0  0  0  0  0  0
    3.7500   -3.8971    0.0000 N   0  0  0  0  0  0  0  0  0  0  0  0
    5.2500   -3.8971    0.0000 C   0  0  0  0  0  0  0  0  0  0  0  0
    6.1317   -2.6836    0.0000 N   0  0  0  0  0  0  0  0  0  0  0  0
    7.5583   -3.1471    0.0000 N   0  0  0  0  0  0  0  0  0  0  0  0
    7.5583   -4.6471    0.0000 N   0  0  0  0  0  0  0  0  0  0  0  0
    6.1317   -5.1106    0.0000 N   0  0  0  0  0  0  0  0  0  0  0  0
    5.6682   -6.5372    0.0000 N   0  0  0  0  0  0  0  0  0  0  0  0
    6.5498   -7.7508    0.0000 C   0  0  0  0  0  0  0  0  0  0  0  0
    5.6682   -8.9643    0.0000 C   0  0  0  0  0  0  0  0  0  0  0  0
    4.2416   -8.5008    0.0000 N   0  0  0  0  0  0  0  0  0  0  0  0
    3.0280   -9.3824    0.0000 C   0  0  0  0  0  0  0  0  0  0  0  0
    3.1848  -10.8742    0.0000 O   0  0  0  0  0  0  0  0  0  0  0  0
    1.6577   -8.7723    0.0000 N   0  0  0  0  0  0  0  0  0  0  0  0
    0.4442   -9.6540    0.0000 C   0  0  0  0  0  0  0  0  0  0  0  0
   -0.9261   -9.0439    0.0000 N   0  0  0  0  0  0  0  0  0  0  0  0
   -2.1396   -9.9256    0.0000 N   0  0  0  0  0  0  0  0  0  0  0  0
   -1.9829  -11.4174    0.0000 N   0  0  0  0  0  0  0  0  0  0  0  0
   -0.6125  -12.0275    0.0000 N   0  0  0  0  0  0  0  0  0  0  0  0
    0.6010  -11.1458    0.0000 N   0  0  0  0  0  0  0  0  0  0  0  0
    4.2416   -7.0008    0.0000 C   0  0  0  0  0  0  0  0  0  0  0  0
    3.0280   -6.1191    0.0000 O   0  0  0  0  0  0  0  0  0  0  0  0
    0.7500   -1.2990    0.0000 C   0  0  0  0  0  0  0  0  0  0  0  0
    1.5000    0.0000    0.0000 C   0  0  0  0  0  0  0  0  0  0  0  0
    0.7500    1.2990    0.0000 C   0  0  0  0  0  0  0  0  0  0  0  0
   -0.7500    1.2990    0.0000 C   0  0  0  0  0  0  0  0  0  0  0  0
   -1.5000    0.0000    0.0000 C   0  0  0  0  0  0  0  0  0  0  0  0
   -0.7500   -1.2990    0.0000 C   0  0  0  0  0  0  0  0  0  0  0  0
  1  2  1  0
  2  3  2  0
  2  4  1  0
  4  5  1  0
  5  6  2  0
  6  7  1  0
  7  8  2  0
  8  9  1  0
  9 10  2  0
  9 11  1  0
 11 12  1  0
 12 13  2  0
 13 14  1  0
 14 15  2  0
 15 16  1  0
 16 17  1  0
 17 18  1  0
 18 19  1  0
 19 20  1  0
 20 21  1  0
 21 22  2  0
 21 23  1  0
 23 24  1  0
 24 25  2  0
 25 26  1  0
 26 27  2  0
 27 28  1  0
 28 29  2  0
 20 30  1  0
 30 31  2  0
  8 32  1  0
 32 33  2  0
 33 34  1  0
 34 35  2  0
 35 36  1  0
 36 37  2  0
 37  5  1  0
 16 12  1  0
 30 17  1  0
 37 32  1  0
 29 24  1  0
M  END
>  <Title>  (365) 
idAAMCgen14

$$$$

     RDKit          2D

 40 45  0  0  0  0  0  0  0  0999 V2000
   -1.3240   -6.3062    0.0000 C   0  0  0  0  0  0  0  0  0  0  0  0
   -0.7500   -4.9204    0.0000 C   0  0  0  0  0  0  0  0  0  0  0  0
    0.7500   -4.9204    0.0000 C   0  0  0  0  0  0  0  0  0  0  0  0
    1.8107   -3.8597    0.0000 C   0  0  0  0  0  0  0  0  0  0  0  0
    1.8107   -2.3597    0.0000 C   0  0  0  0  0  0  0  0  0  0  0  0
    3.1965   -1.7857    0.0000 C   0  0  0  0  0  0  0  0  0  0  0  0
    3.3923   -0.2985    0.0000 O   0  0  0  0  0  0  0  0  0  0  0  0
    4.3865   -2.6988    0.0000 N   0  0  0  0  0  0  0  0  0  0  0  0
    5.7723   -2.1248    0.0000 C   0  0  0  0  0  0  0  0  0  0  0  0
    6.1225   -0.6662    0.0000 N   0  0  0  0  0  0  0  0  0  0  0  0
    7.6179   -0.5485    0.0000 N   0  0  0  0  0  0  0  0  0  0  0  0
    8.1919   -1.9344    0.0000 N   0  0  0  0  0  0  0  0  0  0  0  0
    7.0513   -2.9085    0.0000 N   0  0  0  0  0  0  0  0  0  0  0  0
    7.1690   -4.4039    0.0000 N   0  0  0  0  0  0  0  0  0  0  0  0
    8.4479   -5.1877    0.0000 C   0  0  0  0  0  0  0  0  0  0  0  0
    8.0978   -6.6462    0.0000 C   0  0  0  0  0  0  0  0  0  0  0  0
    6.6024   -6.7639    0.0000 C   0  0  0  0  0  0  0  0  0  0  0  0
    5.8186   -8.0429    0.0000 C   0  0  0  0  0  0  0  0  0  0  0  0
    6.5344   -9.3611    0.0000 O   0  0  0  0  0  0  0  0  0  0  0  0
    4.3192   -8.0036    0.0000 N   0  0  0  0  0  0  0  0  0  0  0  0
    3.5354   -9.2826    0.0000 C   0  0  0  0  0  0  0  0  0  0  0  0
    2.0359   -9.2433    0.0000 N   0  0  0  0  0  0  0  0  0  0  0  0
    1.2522  -10.5223    0.0000 N   0  0  0  0  0  0  0  0  0  0  0  0
    1.9679  -11.8405    0.0000 N   0  0  0  0  0  0  0  0  0  0  0  0
    3.4674  -11.8797    0.0000 N   0  0  0  0  0  0  0  0  0  0  0  0
    4.2512  -10.6008    0.0000 N   0  0  0  0  0  0  0  0  0  0  0  0
    6.0284   -5.3781    0.0000 C   0  0  0  0  0  0  0  0  0  0  0  0
    4.5698   -5.0279    0.0000 O   0  0  0  0  0  0  0  0  0  0  0  0
    0.7500   -1.2990    0.0000 C   0  0  0  0  0  0  0  0  0  0  0  0
    1.5000    0.0000    0.0000 C   0  0  0  0  0  0  0  0  0  0  0  0
    0.7500    1.2990    0.0000 C   0  0  0  0  0  0  0  0  0  0  0  0
   -0.7500    1.2990    0.0000 C   0  0  0  0  0  0  0  0  0  0  0  0
   -1.5000    0.0000    0.0000 C   0  0  0  0  0  0  0  0  0  0  0  0
   -0.7500   -1.2990    0.0000 C   0  0  0  0  0  0  0  0  0  0  0  0
   -1.8107   -2.3597    0.0000 C   0  0  0  0  0  0  0  0  0  0  0  0
   -3.1097   -1.6097    0.0000 C   0  0  0  0  0  0  0  0  0  0  0  0
   -4.4087   -2.3597    0.0000 C   0  0  0  0  0  0  0  0  0  0  0  0
   -4.4087   -3.8597    0.0000 C   0  0  0  0  0  0  0  0  0  0  0  0
   -3.1097   -4.6097    0.0000 C   0  0  0  0  0  0  0  0  0  0  0  0
   -1.8107   -3.8597    0.0000 C   0  0  0  0  0  0  0  0  0  0  0  0
  1  2  1  0
  2  3  2  0
  3  4  1  0
  4  5  2  0
  5  6  1  0
  6  7  2  0
  6  8  1  0
  8  9  1  0
  9 10  2  0
 10 11  1  0
 11 12  2  0
 12 13  1  0
 13 14  1  0
 14 15  1  0
 15 16  1  0
 16 17  1  0
 17 18  1  0
 18 19  2  0
 18 20  1  0
 20 21  1  0
 21 22  2  0
 22 23  1  0
 23 24  2  0
 24 25  1  0
 25 26  2  0
 17 27  1  0
 27 28  2  0
  5 29  1  0
 29 30  2  0
 30 31  1  0
 31 32  2  0
 32 33  1  0
 33 34  2  0
 34 35  1  0
 35 36  2  0
 36 37  1  0
 37 38  2  0
 38 39  1  0
 39 40  2  0
 40  2  1  0
 13  9  1  0
 27 14  1  0
 34 29  1  0
 40 35  1  0
 26 21  1  0
M  END
>  <Title>  (366) 
idAAMDgen14

$$$$

     RDKit          2D

 35 39  0  0  0  0  0  0  0  0999 V2000
   -3.1476   -2.1380    0.0000 C   0  0  0  0  0  0  0  0  0  0  0  0
   -1.6852   -2.4718    0.0000 C   0  0  0  0  0  0  0  0  0  0  0  0
   -1.3515   -3.9342    0.0000 C   0  0  0  0  0  0  0  0  0  0  0  0
   -0.0000   -4.5850    0.0000 C   0  0  0  0  0  0  0  0  0  0  0  0
    1.3515   -3.9342    0.0000 C   0  0  0  0  0  0  0  0  0  0  0  0
    1.6852   -2.4718    0.0000 C   0  0  0  0  0  0  0  0  0  0  0  0
    3.1476   -2.1380    0.0000 C   0  0  0  0  0  0  0  0  0  0  0  0
    3.5898   -0.7046    0.0000 O   0  0  0  0  0  0  0  0  0  0  0  0
    4.1679   -3.2376    0.0000 N   0  0  0  0  0  0  0  0  0  0  0  0
    5.6303   -2.9038    0.0000 C   0  0  0  0  0  0  0  0  0  0  0  0
    6.2198   -1.5245    0.0000 N   0  0  0  0  0  0  0  0  0  0  0  0
    7.7138   -1.6590    0.0000 N   0  0  0  0  0  0  0  0  0  0  0  0
    8.0476   -3.1214    0.0000 N   0  0  0  0  0  0  0  0  0  0  0  0
    6.7599   -3.8907    0.0000 N   0  0  0  0  0  0  0  0  0  0  0  0
    6.6254   -5.3847    0.0000 C   0  0  0  0  0  0  0  0  0  0  0  0
    7.7550   -6.3716    0.0000 C   0  0  0  0  0  0  0  0  0  0  0  0
    7.1655   -7.7509    0.0000 C   0  0  0  0  0  0  0  0  0  0  0  0
    5.6715   -7.6164    0.0000 C   0  0  0  0  0  0  0  0  0  0  0  0
    4.6846   -8.7460    0.0000 C   0  0  0  0  0  0  0  0  0  0  0  0
    5.1694  -10.1655    0.0000 O   0  0  0  0  0  0  0  0  0  0  0  0
    3.2129   -8.4561    0.0000 N   0  0  0  0  0  0  0  0  0  0  0  0
    2.2260   -9.5857    0.0000 C   0  0  0  0  0  0  0  0  0  0  0  0
    0.7543   -9.2959    0.0000 N   0  0  0  0  0  0  0  0  0  0  0  0
   -0.2326  -10.4255    0.0000 N   0  0  0  0  0  0  0  0  0  0  0  0
    0.2522  -11.8450    0.0000 N   0  0  0  0  0  0  0  0  0  0  0  0
    1.7239  -12.1348    0.0000 N   0  0  0  0  0  0  0  0  0  0  0  0
    2.7108  -11.0052    0.0000 N   0  0  0  0  0  0  0  0  0  0  0  0
    5.3378   -6.1540    0.0000 C   0  0  0  0  0  0  0  0  0  0  0  0
    3.9585   -5.5645    0.0000 O   0  0  0  0  0  0  0  0  0  0  0  0
    0.7500   -1.2990    0.0000 C   0  0  0  0  0  0  0  0  0  0  0  0
    1.5000    0.0000    0.0000 C   0  0  0  0  0  0  0  0  0  0  0  0
    0.7500    1.2990    0.0000 C   0  0  0  0  0  0  0  0  0  0  0  0
   -0.7500    1.2990    0.0000 C   0  0  0  0  0  0  0  0  0  0  0  0
   -1.5000    0.0000    0.0000 C   0  0  0  0  0  0  0  0  0  0  0  0
   -0.7500   -1.2990    0.0000 C   0  0  0  0  0  0  0  0  0  0  0  0
  1  2  1  0
  2  3  1  0
  3  4  1  0
  4  5  1  0
  5  6  1  0
  6  7  1  0
  7  8  2  0
  7  9  1  0
  9 10  1  0
 10 11  2  0
 11 12  1  0
 12 13  2  0
 13 14  1  0
 14 15  1  0
 15 16  2  0
 16 17  1  0
 17 18  2  0
 18 19  1  0
 19 20  2  0
 19 21  1  0
 21 22  1  0
 22 23  2  0
 23 24  1  0
 24 25  2  0
 25 26  1  0
 26 27  2  0
 18 28  1  0
 28 29  2  0
  6 30  1  0
 30 31  2  0
 31 32  1  0
 32 33  2  0
 33 34  1  0
 34 35  2  0
 35  2  1  0
 14 10  1  0
 28 15  1  0
 35 30  1  0
 27 22  1  0
M  END
>  <Title>  (367) 
idAAMEgen14

$$$$

     RDKit          2D

 40 45  0  0  0  0  0  0  0  0999 V2000
   -3.0000   -5.1962    0.0000 C   0  0  0  0  0  0  0  0  0  0  0  0
   -3.7500   -3.8971    0.0000 C   0  0  0  0  0  0  0  0  0  0  0  0
   -5.2500   -3.8971    0.0000 C   0  0  0  0  0  0  0  0  0  0  0  0
   -6.0000   -2.5981    0.0000 N   0  0  0  0  0  0  0  0  0  0  0  0
   -5.2500   -1.2990    0.0000 C   0  0  0  0  0  0  0  0  0  0  0  0
   -3.7500   -1.2990    0.0000 N   0  0  0  0  0  0  0  0  0  0  0  0
   -3.0000   -2.5981    0.0000 N   0  0  0  0  0  0  0  0  0  0  0  0
   -1.5000   -2.5981    0.0000 C   0  0  0  0  0  0  0  0  0  0  0  0
   -0.7500   -3.8971    0.0000 C   0  0  0  0  0  0  0  0  0  0  0  0
    0.7500   -3.8971    0.0000 C   0  0  0  0  0  0  0  0  0  0  0  0
    1.5000   -2.5981    0.0000 C   0  0  0  0  0  0  0  0  0  0  0  0
    3.0000   -2.5981    0.0000 C   0  0  0  0  0  0  0  0  0  0  0  0
    3.7500   -1.2990    0.0000 O   0  0  0  0  0  0  0  0  0  0  0  0
    3.7500   -3.8971    0.0000 N   0  0  0  0  0  0  0  0  0  0  0  0
    5.2500   -3.8971    0.0000 C   0  0  0  0  0  0  0  0  0  0  0  0
    6.1317   -2.6836    0.0000 N   0  0  0  0  0  0  0  0  0  0  0  0
    7.5583   -3.1471    0.0000 N   0  0  0  0  0  0  0  0  0  0  0  0
    7.5583   -4.6471    0.0000 N   0  0  0  0  0  0  0  0  0  0  0  0
    6.1317   -5.1106    0.0000 N   0  0  0  0  0  0  0  0  0  0  0  0
    5.6682   -6.5372    0.0000 C   0  0  0  0  0  0  0  0  0  0  0  0
    6.5498   -7.7508    0.0000 C   0  0  0  0  0  0  0  0  0  0  0  0
    5.6682   -8.9643    0.0000 C   0  0  0  0  0  0  0  0  0  0  0  0
    4.2416   -8.5008    0.0000 C   0  0  0  0  0  0  0  0  0  0  0  0
    3.0280   -9.3824    0.0000 C   0  0  0  0  0  0  0  0  0  0  0  0
    3.1848  -10.8742    0.0000 O   0  0  0  0  0  0  0  0  0  0  0  0
    1.6577   -8.7723    0.0000 N   0  0  0  0  0  0  0  0  0  0  0  0
    0.4442   -9.6540    0.0000 C   0  0  0  0  0  0  0  0  0  0  0  0
   -0.9261   -9.0439    0.0000 N   0  0  0  0  0  0  0  0  0  0  0  0
   -2.1396   -9.9256    0.0000 N   0  0  0  0  0  0  0  0  0  0  0  0
   -1.9829  -11.4174    0.0000 N   0  0  0  0  0  0  0  0  0  0  0  0
   -0.6125  -12.0275    0.0000 N   0  0  0  0  0  0  0  0  0  0  0  0
    0.6010  -11.1458    0.0000 N   0  0  0  0  0  0  0  0  0  0  0  0
    4.2416   -7.0008    0.0000 C   0  0  0  0  0  0  0  0  0  0  0  0
    3.0280   -6.1191    0.0000 O   0  0  0  0  0  0  0  0  0  0  0  0
    0.7500   -1.2990    0.0000 C   0  0  0  0  0  0  0  0  0  0  0  0
    1.5000    0.0000    0.0000 C   0  0  0  0  0  0  0  0  0  0  0  0
    0.7500    1.2990    0.0000 C   0  0  0  0  0  0  0  0  0  0  0  0
   -0.7500    1.2990    0.0000 C   0  0  0  0  0  0  0  0  0  0  0  0
   -1.5000    0.0000    0.0000 C   0  0  0  0  0  0  0  0  0  0  0  0
   -0.7500   -1.2990    0.0000 C   0  0  0  0  0  0  0  0  0  0  0  0
  1  2  1  0
  2  3  2  0
  3  4  1  0
  4  5  1  0
  5  6  2  0
  6  7  1  0
  7  8  1  0
  8  9  2  0
  9 10  1  0
 10 11  2  0
 11 12  1  0
 12 13  2  0
 12 14  1  0
 14 15  1  0
 15 16  2  0
 16 17  1  0
 17 18  2  0
 18 19  1  0
 19 20  1  0
 20 21  2  0
 21 22  1  0
 22 23  2  0
 23 24  1  0
 24 25  2  0
 24 26  1  0
 26 27  1  0
 27 28  2  0
 28 29  1  0
 29 30  2  0
 30 31  1  0
 31 32  2  0
 23 33  1  0
 33 34  2  0
 11 35  1  0
 35 36  2  0
 36 37  1  0
 37 38  2  0
 38 39  1  0
 39 40  2  0
  7  2  1  0
 40  8  1  0
 19 15  1  0
 33 20  1  0
 40 35  1  0
 32 27  1  0
M  END
>  <Title>  (368) 
idAAMFgen14

$$$$

     RDKit          2D

  7  7  0  0  0  0  0  0  0  0999 V2000
    3.0000    0.0000    0.0000 C   0  0  0  0  0  0  0  0  0  0  0  0
    1.5000    0.0000    0.0000 C   0  0  0  0  0  0  0  0  0  0  0  0
    0.7500   -1.2990    0.0000 C   0  0  0  0  0  0  0  0  0  0  0  0
   -0.7500   -1.2990    0.0000 C   0  0  0  0  0  0  0  0  0  0  0  0
   -1.5000    0.0000    0.0000 C   0  0  0  0  0  0  0  0  0  0  0  0
   -0.7500    1.2990    0.0000 N   0  0  0  0  0  0  0  0  0  0  0  0
    0.7500    1.2990    0.0000 N   0  0  0  0  0  0  0  0  0  0  0  0
  1  2  1  0
  2  3  2  0
  3  4  1  0
  4  5  2  0
  5  6  1  0
  6  7  1  0
  7  2  1  0
M  END
>  <Title>  (369) 
idAAMGgen14

$$$$

     RDKit          2D

113114  0  0  0  0  0  0  0  0999 V2000
    1.5957    3.7216    0.0000 C   0  0  0  0  0  0  0  0  0  0  0  0
    2.3109    4.0736    0.0000 C   0  0  0  0  0  0  0  0  0  0  0  0
    1.6927    5.4402    0.0000 C   0  0  0  0  0  0  0  0  0  0  0  0
    1.1641    6.8440    0.0000 C   0  0  0  0  0  0  0  0  0  0  0  0
    0.7276    8.2791    0.0000 C   0  0  0  0  0  0  0  0  0  0  0  0
    0.3849    9.7394    0.0000 C   0  0  0  0  0  0  0  0  0  0  0  0
    0.1374   11.2188    0.0000 C   0  0  0  0  0  0  0  0  0  0  0  0
   -0.0138   12.7112    0.0000 C   0  0  0  0  0  0  0  0  0  0  0  0
   -0.0681   14.2102    0.0000 C   0  0  0  0  0  0  0  0  0  0  0  0
   -0.0252   15.7096    0.0000 C   0  0  0  0  0  0  0  0  0  0  0  0
    0.1146   17.2031    0.0000 C   0  0  0  0  0  0  0  0  0  0  0  0
    0.3508   18.6844    0.0000 C   0  0  0  0  0  0  0  0  0  0  0  0
    0.6824   20.1473    0.0000 C   0  0  0  0  0  0  0  0  0  0  0  0
    1.1080   21.5856    0.0000 C   0  0  0  0  0  0  0  0  0  0  0  0
    1.6258   22.9934    0.0000 C   0  0  0  0  0  0  0  0  0  0  0  0
    2.2336   24.3647    0.0000 C   0  0  0  0  0  0  0  0  0  0  0  0
    2.9289   25.6938    0.0000 C   0  0  0  0  0  0  0  0  0  0  0  0
    3.7089   26.9751    0.0000 C   0  0  0  0  0  0  0  0  0  0  0  0
    4.5701   28.2033    0.0000 C   0  0  0  0  0  0  0  0  0  0  0  0
    5.5090   29.3731    0.0000 C   0  0  0  0  0  0  0  0  0  0  0  0
    6.5216   30.4797    0.0000 C   0  0  0  0  0  0  0  0  0  0  0  0
    7.6038   31.5184    0.0000 C   0  0  0  0  0  0  0  0  0  0  0  0
    8.7509   32.4849    0.0000 C   0  0  0  0  0  0  0  0  0  0  0  0
    9.9582   33.3751    0.0000 C   0  0  0  0  0  0  0  0  0  0  0  0
   11.2206   34.1853    0.0000 C   0  0  0  0  0  0  0  0  0  0  0  0
   12.5327   34.9121    0.0000 C   0  0  0  0  0  0  0  0  0  0  0  0
   13.8892   35.5524    0.0000 C   0  0  0  0  0  0  0  0  0  0  0  0
   15.2842   36.1036    0.0000 C   0  0  0  0  0  0  0  0  0  0  0  0
   16.7121   36.5633    0.0000 C   0  0  0  0  0  0  0  0  0  0  0  0
   18.1666   36.9296    0.0000 C   0  0  0  0  0  0  0  0  0  0  0  0
   19.6419   37.2010    0.0000 C   0  0  0  0  0  0  0  0  0  0  0  0
   21.1316   37.3764    0.0000 C   0  0  0  0  0  0  0  0  0  0  0  0
   22.6295   37.4549    0.0000 C   0  0  0  0  0  0  0  0  0  0  0  0
   24.1294   37.4364    0.0000 C   0  0  0  0  0  0  0  0  0  0  0  0
   25.6250   37.3207    0.0000 C   0  0  0  0  0  0  0  0  0  0  0  0
   27.1099   37.1085    0.0000 C   0  0  0  0  0  0  0  0  0  0  0  0
   28.5779   36.8007    0.0000 C   0  0  0  0  0  0  0  0  0  0  0  0
   30.0230   36.3984    0.0000 C   0  0  0  0  0  0  0  0  0  0  0  0
   31.4390   35.9035    0.0000 C   0  0  0  0  0  0  0  0  0  0  0  0
   32.8200   35.3180    0.0000 C   0  0  0  0  0  0  0  0  0  0  0  0
   34.1602   34.6442    0.0000 C   0  0  0  0  0  0  0  0  0  0  0  0
   35.4539   33.8852    0.0000 C   0  0  0  0  0  0  0  0  0  0  0  0
   36.6959   33.0440    0.0000 C   0  0  0  0  0  0  0  0  0  0  0  0
   37.8807   32.1241    0.0000 C   0  0  0  0  0  0  0  0  0  0  0  0
   39.0036   31.1295    0.0000 C   0  0  0  0  0  0  0  0  0  0  0  0
   40.0597   30.0643    0.0000 C   0  0  0  0  0  0  0  0  0  0  0  0
   41.0446   28.9330    0.0000 C   0  0  0  0  0  0  0  0  0  0  0  0
   41.9543   27.7403    0.0000 C   0  0  0  0  0  0  0  0  0  0  0  0
   42.7848   26.4912    0.0000 C   0  0  0  0  0  0  0  0  0  0  0  0
   43.5327   25.1910    0.0000 C   0  0  0  0  0  0  0  0  0  0  0  0
   44.1949   23.8451    0.0000 C   0  0  0  0  0  0  0  0  0  0  0  0
   44.7686   22.4591    0.0000 C   0  0  0  0  0  0  0  0  0  0  0  0
   45.2514   21.0389    0.0000 C   0  0  0  0  0  0  0  0  0  0  0  0
   45.6412   19.5905    0.0000 C   0  0  0  0  0  0  0  0  0  0  0  0
   45.9365   18.1198    0.0000 C   0  0  0  0  0  0  0  0  0  0  0  0
   46.1359   16.6331    0.0000 C   0  0  0  0  0  0  0  0  0  0  0  0
   46.2387   15.1367    0.0000 C   0  0  0  0  0  0  0  0  0  0  0  0
   46.2445   13.6367    0.0000 C   0  0  0  0  0  0  0  0  0  0  0  0
   46.1531   12.1395    0.0000 C   0  0  0  0  0  0  0  0  0  0  0  0
   45.9650   10.6513    0.0000 C   0  0  0  0  0  0  0  0  0  0  0  0
   45.6809    9.1785    0.0000 C   0  0  0  0  0  0  0  0  0  0  0  0
   45.3021    7.7271    0.0000 C   0  0  0  0  0  0  0  0  0  0  0  0
   44.8302    6.3032    0.0000 C   0  0  0  0  0  0  0  0  0  0  0  0
   44.2671    4.9130    0.0000 C   0  0  0  0  0  0  0  0  0  0  0  0
   43.6151    3.5620    0.0000 C   0  0  0  0  0  0  0  0  0  0  0  0
   42.8771    2.2561    0.0000 C   0  0  0  0  0  0  0  0  0  0  0  0
   42.0561    1.0008    0.0000 C   0  0  0  0  0  0  0  0  0  0  0  0
   41.1556   -0.1988    0.0000 C   0  0  0  0  0  0  0  0  0  0  0  0
   40.1793   -1.3376    0.0000 C   0  0  0  0  0  0  0  0  0  0  0  0
   39.1314   -2.4108    0.0000 C   0  0  0  0  0  0  0  0  0  0  0  0
   38.0161   -3.4140    0.0000 C   0  0  0  0  0  0  0  0  0  0  0  0
   36.8383   -4.3428    0.0000 C   0  0  0  0  0  0  0  0  0  0  0  0
   35.6028   -5.1935    0.0000 C   0  0  0  0  0  0  0  0  0  0  0  0
   34.3149   -5.9624    0.0000 C   0  0  0  0  0  0  0  0  0  0  0  0
   32.9799   -6.6463    0.0000 C   0  0  0  0  0  0  0  0  0  0  0  0
   31.6034   -7.2423    0.0000 C   0  0  0  0  0  0  0  0  0  0  0  0
   30.1912   -7.7480    0.0000 C   0  0  0  0  0  0  0  0  0  0  0  0
   28.7493   -8.1613    0.0000 C   0  0  0  0  0  0  0  0  0  0  0  0
   27.2836   -8.4803    0.0000 C   0  0  0  0  0  0  0  0  0  0  0  0
   25.8003   -8.7038    0.0000 C   0  0  0  0  0  0  0  0  0  0  0  0
   24.3057   -8.8308    0.0000 C   0  0  0  0  0  0  0  0  0  0  0  0
   22.8060   -8.8608    0.0000 C   0  0  0  0  0  0  0  0  0  0  0  0
   21.3075   -8.7937    0.0000 C   0  0  0  0  0  0  0  0  0  0  0  0
   19.8165   -8.6297    0.0000 C   0  0  0  0  0  0  0  0  0  0  0  0
   18.3392   -8.3696    0.0000 C   0  0  0  0  0  0  0  0  0  0  0  0
   16.8819   -8.0143    0.0000 C   0  0  0  0  0  0  0  0  0  0  0  0
   15.4506   -7.5655    0.0000 C   0  0  0  0  0  0  0  0  0  0  0  0
   14.0514   -7.0250    0.0000 C   0  0  0  0  0  0  0  0  0  0  0  0
   12.6901   -6.3950    0.0000 C   0  0  0  0  0  0  0  0  0  0  0  0
   11.3724   -5.6782    0.0000 C   0  0  0  0  0  0  0  0  0  0  0  0
   10.1039   -4.8777    0.0000 C   0  0  0  0  0  0  0  0  0  0  0  0
    8.8899   -3.9967    0.0000 C   0  0  0  0  0  0  0  0  0  0  0  0
    7.7355   -3.0390    0.0000 C   0  0  0  0  0  0  0  0  0  0  0  0
    6.6454   -2.0085    0.0000 C   0  0  0  0  0  0  0  0  0  0  0  0
    5.6244   -0.9097    0.0000 C   0  0  0  0  0  0  0  0  0  0  0  0
    4.6766    0.2529    0.0000 C   0  0  0  0  0  0  0  0  0  0  0  0
    3.8060    1.4745    0.0000 C   0  0  0  0  0  0  0  0  0  0  0  0
    3.3816   -0.0000    0.0000 C   0  0  0  0  0  0  0  0  0  0  0  0
    3.1533   -1.2216    0.0000 C   0  0  0  0  0  0  0  0  0  0  0  0
    2.4991   -2.2782    0.0000 C   0  0  0  0  0  0  0  0  0  0  0  0
    1.5073   -3.0271    0.0000 C   0  0  0  0  0  0  0  0  0  0  0  0
    0.3120   -3.3672    0.0000 C   0  0  0  0  0  0  0  0  0  0  0  0
   -0.9254   -3.2526    0.0000 C   0  0  0  0  0  0  0  0  0  0  0  0
   -2.0379   -2.6986    0.0000 C   0  0  0  0  0  0  0  0  0  0  0  0
   -2.8751   -1.7802    0.0000 C   0  0  0  0  0  0  0  0  0  0  0  0
   -3.3241   -0.6214    0.0000 C   0  0  0  0  0  0  0  0  0  0  0  0
   -3.3241    0.6214    0.0000 C   0  0  0  0  0  0  0  0  0  0  0  0
   -2.8751    1.7802    0.0000 C   0  0  0  0  0  0  0  0  0  0  0  0
   -2.0379    2.6986    0.0000 C   0  0  0  0  0  0  0  0  0  0  0  0
   -0.9254    3.2526    0.0000 C   0  0  0  0  0  0  0  0  0  0  0  0
    0.3120    3.3672    0.0000 C   0  0  0  0  0  0  0  0  0  0  0  0
    1.5073    3.0271    0.0000 C   0  0  0  0  0  0  0  0  0  0  0  0
    3.0164    2.7498    0.0000 C   0  0  0  0  0  0  0  0  0  0  0  0
  1  2  1  0
  2  3  1  0
  3  4  1  0
  4  5  1  0
  5  6  1  0
  6  7  1  0
  7  8  1  0
  8  9  1  0
  9 10  1  0
 10 11  1  0
 11 12  1  0
 12 13  1  0
 13 14  1  0
 14 15  1  0
 15 16  1  0
 16 17  1  0
 17 18  1  0
 18 19  1  0
 19 20  1  0
 20 21  1  0
 21 22  1  0
 22 23  1  0
 23 24  1  0
 24 25  1  0
 25 26  1  0
 26 27  1  0
 27 28  1  0
 28 29  1  0
 29 30  1  0
 30 31  1  0
 31 32  1  0
 32 33  1  0
 33 34  1  0
 34 35  1  0
 35 36  1  0
 36 37  1  0
 37 38  1  0
 38 39  1  0
 39 40  1  0
 40 41  1  0
 41 42  1  0
 42 43  1  0
 43 44  1  0
 44 45  1  0
 45 46  1  0
 46 47  1  0
 47 48  1  0
 48 49  1  0
 49 50  1  0
 50 51  1  0
 51 52  1  0
 52 53  1  0
 53 54  1  0
 54 55  1  0
 55 56  1  0
 56 57  1  0
 57 58  1  0
 58 59  1  0
 59 60  1  0
 60 61  1  0
 61 62  1  0
 62 63  1  0
 63 64  1  0
 64 65  1  0
 65 66  1  0
 66 67  1  0
 67 68  1  0
 68 69  1  0
 69 70  1  0
 70 71  1  0
 71 72  1  0
 72 73  1  0
 73 74  1  0
 74 75  1  0
 75 76  1  0
 76 77  1  0
 77 78  1  0
 78 79  1  0
 79 80  1  0
 80 81  1  0
 81 82  1  0
 82 83  1  0
 83 84  1  0
 84 85  1  0
 85 86  1  0
 86 87  1  0
 87 88  1  0
 88 89  1  0
 89 90  1  0
 90 91  1  0
 91 92  1  0
 92 93  1  0
 93 94  1  0
 94 95  1  0
 95 96  1  0
 96 97  1  0
 97 98  1  0
 98 99  1  0
 99100  1  0
100101  2  0
101102  1  0
102103  2  0
103104  1  0
104105  2  0
105106  1  0
106107  2  0
107108  1  0
108109  2  0
109110  1  0
110111  2  0
111112  1  0
112113  2  0
113  2  1  0
113 97  1  0
M  END
>  <Title>  (370) 
idAAMHgen14

$$$$

     RDKit          2D

 25 27  0  0  0  0  0  0  0  0999 V2000
    3.2286   -0.0000    0.0000 C   0  0  0  0  0  0  0  0  0  0  0  0
    1.7286    0.0000    0.0000 C   0  0  0  0  0  0  0  0  0  0  0  0
    1.0777    1.3515    0.0000 C   0  0  0  0  0  0  0  0  0  0  0  0
   -0.3846    1.6852    0.0000 C   0  0  0  0  0  0  0  0  0  0  0  0
   -1.5574    0.7500    0.0000 C   0  0  0  0  0  0  0  0  0  0  0  0
   -2.9088    1.4008    0.0000 C   0  0  0  0  0  0  0  0  0  0  0  0
   -4.1482    0.5558    0.0000 O   0  0  0  0  0  0  0  0  0  0  0  0
   -3.0209    2.8966    0.0000 N   0  0  0  0  0  0  0  0  0  0  0  0
   -4.3724    3.5475    0.0000 C   0  0  0  0  0  0  0  0  0  0  0  0
   -5.6933    2.8367    0.0000 N   0  0  0  0  0  0  0  0  0  0  0  0
   -6.7775    3.8732    0.0000 N   0  0  0  0  0  0  0  0  0  0  0  0
   -6.1267    5.2247    0.0000 N   0  0  0  0  0  0  0  0  0  0  0  0
   -4.6402    5.0234    0.0000 N   0  0  0  0  0  0  0  0  0  0  0  0
   -3.6036    6.1075    0.0000 N   0  0  0  0  0  0  0  0  0  0  0  0
   -2.1464    5.7519    0.0000 C   0  0  0  0  0  0  0  0  0  0  0  0
   -1.1098    6.8361    0.0000 C   0  0  0  0  0  0  0  0  0  0  0  0
   -1.5304    8.2759    0.0000 N   0  0  0  0  0  0  0  0  0  0  0  0
   -0.4939    9.3601    0.0000 C   0  0  0  0  0  0  0  0  0  0  0  0
   -0.9145   10.7999    0.0000 O   0  0  0  0  0  0  0  0  0  0  0  0
    0.9634    9.0045    0.0000 O   0  0  0  0  0  0  0  0  0  0  0  0
   -2.9877    8.6315    0.0000 C   0  0  0  0  0  0  0  0  0  0  0  0
   -4.0243    7.5474    0.0000 C   0  0  0  0  0  0  0  0  0  0  0  0
   -1.5574   -0.7500    0.0000 C   0  0  0  0  0  0  0  0  0  0  0  0
   -0.3846   -1.6852    0.0000 C   0  0  0  0  0  0  0  0  0  0  0  0
    1.0777   -1.3515    0.0000 C   0  0  0  0  0  0  0  0  0  0  0  0
  1  2  1  0
  2  3  1  0
  3  4  2  0
  4  5  1  0
  5  6  1  0
  6  7  2  0
  6  8  1  0
  8  9  1  0
  9 10  2  0
 10 11  1  0
 11 12  2  0
 12 13  1  0
 13 14  1  0
 14 15  1  0
 15 16  2  0
 16 17  1  0
 17 18  1  0
 18 19  2  0
 18 20  1  0
 17 21  1  0
 21 22  1  0
  5 23  1  0
 23 24  1  0
 24 25  1  0
 25  2  1  0
 13  9  1  0
 22 14  1  0
M  END
>  <Title>  (371) 
idAAMIgen14

$$$$

     RDKit          2D

 10  9  0  0  0  0  0  0  0  0999 V2000
    0.0000    0.0000    0.0000 C   0  0  0  0  0  0  0  0  0  0  0  0
    1.2990    0.7500    0.0000 C   0  0  0  0  0  0  0  0  0  0  0  0
    2.5981   -0.0000    0.0000 C   0  0  0  0  0  0  0  0  0  0  0  0
    3.8971    0.7500    0.0000 C   0  0  0  0  0  0  0  0  0  0  0  0
    5.1962   -0.0000    0.0000 C   0  0  0  0  0  0  0  0  0  0  0  0
    6.4952    0.7500    0.0000 C   0  0  0  0  0  0  0  0  0  0  0  0
    7.7942   -0.0000    0.0000 C   0  0  0  0  0  0  0  0  0  0  0  0
    9.0933    0.7500    0.0000 C   0  0  0  0  0  0  0  0  0  0  0  0
   10.3923   -0.0000    0.0000 C   0  0  0  0  0  0  0  0  0  0  0  0
    9.0933    2.2500    0.0000 C   0  0  0  0  0  0  0  0  0  0  0  0
  1  2  1  0
  2  3  1  0
  3  4  2  3
  4  5  1  0
  5  6  1  0
  6  7  1  0
  7  8  1  0
  8  9  1  0
  8 10  1  0
M  END
>  <Title>  (372) 
idAAMJgen14

$$$$

     RDKit          2D

 34 38  0  0  0  0  0  0  0  0999 V2000
   -3.1476   -2.1380    0.0000 C   0  0  0  0  0  0  0  0  0  0  0  0
   -1.6852   -2.4718    0.0000 C   0  0  0  0  0  0  0  0  0  0  0  0
   -1.3515   -3.9342    0.0000 C   0  0  0  0  0  0  0  0  0  0  0  0
   -0.0000   -4.5850    0.0000 C   0  0  0  0  0  0  0  0  0  0  0  0
    1.3515   -3.9342    0.0000 C   0  0  0  0  0  0  0  0  0  0  0  0
    1.6852   -2.4718    0.0000 C   0  0  0  0  0  0  0  0  0  0  0  0
    3.1476   -2.1380    0.0000 C   0  0  0  0  0  0  0  0  0  0  0  0
    3.5898   -0.7046    0.0000 O   0  0  0  0  0  0  0  0  0  0  0  0
    4.1679   -3.2376    0.0000 N   0  0  0  0  0  0  0  0  0  0  0  0
    5.6303   -2.9038    0.0000 C   0  0  0  0  0  0  0  0  0  0  0  0
    6.2198   -1.5245    0.0000 N   0  0  0  0  0  0  0  0  0  0  0  0
    7.7138   -1.6590    0.0000 N   0  0  0  0  0  0  0  0  0  0  0  0
    8.0476   -3.1214    0.0000 N   0  0  0  0  0  0  0  0  0  0  0  0
    6.7599   -3.8907    0.0000 N   0  0  0  0  0  0  0  0  0  0  0  0
    6.6254   -5.3847    0.0000 N   0  0  0  0  0  0  0  0  0  0  0  0
    5.4740   -6.3460    0.0000 C   0  0  0  0  0  0  0  0  0  0  0  0
    6.4353   -7.4975    0.0000 C   0  0  0  0  0  0  0  0  0  0  0  0
    6.3008   -8.9914    0.0000 C   0  0  0  0  0  0  0  0  0  0  0  0
    7.5274   -9.8548    0.0000 O   0  0  0  0  0  0  0  0  0  0  0  0
    4.9398   -9.6219    0.0000 N   0  0  0  0  0  0  0  0  0  0  0  0
    4.8053  -11.1159    0.0000 C   0  0  0  0  0  0  0  0  0  0  0  0
    3.4443  -11.7464    0.0000 N   0  0  0  0  0  0  0  0  0  0  0  0
    3.3098  -13.2404    0.0000 N   0  0  0  0  0  0  0  0  0  0  0  0
    4.5364  -14.1038    0.0000 N   0  0  0  0  0  0  0  0  0  0  0  0
    5.8974  -13.4733    0.0000 N   0  0  0  0  0  0  0  0  0  0  0  0
    6.0319  -11.9793    0.0000 N   0  0  0  0  0  0  0  0  0  0  0  0
    7.5867   -6.5361    0.0000 C   0  0  0  0  0  0  0  0  0  0  0  0
    9.0807   -6.6706    0.0000 O   0  0  0  0  0  0  0  0  0  0  0  0
    0.7500   -1.2990    0.0000 C   0  0  0  0  0  0  0  0  0  0  0  0
    1.5000    0.0000    0.0000 C   0  0  0  0  0  0  0  0  0  0  0  0
    0.7500    1.2990    0.0000 C   0  0  0  0  0  0  0  0  0  0  0  0
   -0.7500    1.2990    0.0000 C   0  0  0  0  0  0  0  0  0  0  0  0
   -1.5000    0.0000    0.0000 C   0  0  0  0  0  0  0  0  0  0  0  0
   -0.7500   -1.2990    0.0000 C   0  0  0  0  0  0  0  0  0  0  0  0
  1  2  1  0
  2  3  1  0
  3  4  1  0
  4  5  1  0
  5  6  2  0
  6  7  1  0
  7  8  2  0
  7  9  1  0
  9 10  1  0
 10 11  2  0
 11 12  1  0
 12 13  2  0
 13 14  1  0
 14 15  1  0
 15 16  1  0
 16 17  2  0
 17 18  1  0
 18 19  2  0
 18 20  1  0
 20 21  1  0
 21 22  2  0
 22 23  1  0
 23 24  2  0
 24 25  1  0
 25 26  2  0
 17 27  1  0
 27 28  2  0
  6 29  1  0
 29 30  2  0
 30 31  1  0
 31 32  2  0
 32 33  1  0
 33 34  2  0
 34  2  1  0
 14 10  1  0
 27 15  1  0
 34 29  1  0
 26 21  1  0
M  END
>  <Title>  (373) 
idAAMKgen14

$$$$

     RDKit          2D

 10  9  0  0  0  0  0  0  0  0999 V2000
    0.0000    0.0000    0.0000 C   0  0  0  0  0  0  0  0  0  0  0  0
    1.2990    0.7500    0.0000 C   0  0  0  0  0  0  0  0  0  0  0  0
    2.5981   -0.0000    0.0000 C   0  0  0  0  0  0  0  0  0  0  0  0
    3.8971    0.7500    0.0000 C   0  0  0  0  0  0  0  0  0  0  0  0
    5.1962   -0.0000    0.0000 C   0  0  0  0  0  0  0  0  0  0  0  0
    6.4952    0.7500    0.0000 C   0  0  0  0  0  0  0  0  0  0  0  0
    5.1962   -1.5000    0.0000 N   0  0  0  0  0  0  0  0  0  0  0  0
    6.4952   -2.2500    0.0000 C   0  0  0  0  0  0  0  0  0  0  0  0
    6.4952   -3.7500    0.0000 C   0  0  0  0  0  0  0  0  0  0  0  0
    7.7942   -1.5000    0.0000 O   0  0  0  0  0  0  0  0  0  0  0  0
  1  2  1  0
  2  3  2  3
  3  4  1  0
  4  5  1  0
  5  6  1  0
  5  7  1  0
  7  8  1  0
  8  9  1  0
  8 10  2  0
M  END
>  <Title>  (374) 
idAAMLgen14

$$$$

     RDKit          2D

 25 28  0  0  0  0  0  0  0  0999 V2000
   -2.6401   -3.1891    0.0000 C   0  0  0  0  0  0  0  0  0  0  0  0
   -1.2135   -2.7256    0.0000 C   0  0  0  0  0  0  0  0  0  0  0  0
   -0.0000   -3.6073    0.0000 C   0  0  0  0  0  0  0  0  0  0  0  0
    1.2135   -2.7256    0.0000 C   0  0  0  0  0  0  0  0  0  0  0  0
    2.6401   -3.1891    0.0000 C   0  0  0  0  0  0  0  0  0  0  0  0
    3.7548   -2.1855    0.0000 O   0  0  0  0  0  0  0  0  0  0  0  0
    2.9520   -4.6564    0.0000 N   0  0  0  0  0  0  0  0  0  0  0  0
    4.3786   -5.1199    0.0000 C   0  0  0  0  0  0  0  0  0  0  0  0
    5.5921   -4.2382    0.0000 N   0  0  0  0  0  0  0  0  0  0  0  0
    6.8056   -5.1199    0.0000 N   0  0  0  0  0  0  0  0  0  0  0  0
    6.3421   -6.5465    0.0000 N   0  0  0  0  0  0  0  0  0  0  0  0
    4.8421   -6.5465    0.0000 N   0  0  0  0  0  0  0  0  0  0  0  0
    3.9604   -7.7600    0.0000 C   0  0  0  0  0  0  0  0  0  0  0  0
    2.4686   -7.6032    0.0000 C   0  0  0  0  0  0  0  0  0  0  0  0
    1.5869   -8.8167    0.0000 C   0  0  0  0  0  0  0  0  0  0  0  0
    2.1971  -10.1871    0.0000 C   0  0  0  0  0  0  0  0  0  0  0  0
    1.3154  -11.4006    0.0000 O   0  0  0  0  0  0  0  0  0  0  0  0
    3.6888  -10.3438    0.0000 C   0  0  0  0  0  0  0  0  0  0  0  0
    4.5705   -9.1303    0.0000 C   0  0  0  0  0  0  0  0  0  0  0  0
    0.7500   -1.2990    0.0000 C   0  0  0  0  0  0  0  0  0  0  0  0
    1.5000    0.0000    0.0000 C   0  0  0  0  0  0  0  0  0  0  0  0
    0.7500    1.2990    0.0000 C   0  0  0  0  0  0  0  0  0  0  0  0
   -0.7500    1.2990    0.0000 C   0  0  0  0  0  0  0  0  0  0  0  0
   -1.5000    0.0000    0.0000 C   0  0  0  0  0  0  0  0  0  0  0  0
   -0.7500   -1.2990    0.0000 C   0  0  0  0  0  0  0  0  0  0  0  0
  1  2  1  0
  2  3  2  0
  3  4  1  0
  4  5  1  0
  5  6  2  0
  5  7  1  0
  7  8  1  0
  8  9  2  0
  9 10  1  0
 10 11  2  0
 11 12  1  0
 12 13  1  0
 13 14  2  0
 14 15  1  0
 15 16  2  0
 16 17  1  0
 16 18  1  0
 18 19  2  0
  4 20  1  0
 20 21  2  0
 21 22  1  0
 22 23  2  0
 23 24  1  0
 24 25  2  0
 25  2  1  0
 12  8  1  0
 19 13  1  0
 25 20  1  0
M  END
>  <Title>  (375) 
idAAMMgen14

$$$$

     RDKit          2D

 36 40  0  0  0  0  0  0  0  0999 V2000
   -3.1965   -1.7857    0.0000 C   0  0  0  0  0  0  0  0  0  0  0  0
   -1.8107   -2.3597    0.0000 C   0  0  0  0  0  0  0  0  0  0  0  0
   -1.8107   -3.8597    0.0000 C   0  0  0  0  0  0  0  0  0  0  0  0
   -0.7500   -4.9204    0.0000 C   0  0  0  0  0  0  0  0  0  0  0  0
    0.7500   -4.9204    0.0000 C   0  0  0  0  0  0  0  0  0  0  0  0
    1.8107   -3.8597    0.0000 C   0  0  0  0  0  0  0  0  0  0  0  0
    1.8107   -2.3597    0.0000 C   0  0  0  0  0  0  0  0  0  0  0  0
    3.1965   -1.7857    0.0000 C   0  0  0  0  0  0  0  0  0  0  0  0
    3.3923   -0.2985    0.0000 O   0  0  0  0  0  0  0  0  0  0  0  0
    4.3865   -2.6988    0.0000 N   0  0  0  0  0  0  0  0  0  0  0  0
    5.7723   -2.1248    0.0000 C   0  0  0  0  0  0  0  0  0  0  0  0
    6.1225   -0.6662    0.0000 N   0  0  0  0  0  0  0  0  0  0  0  0
    7.6179   -0.5485    0.0000 N   0  0  0  0  0  0  0  0  0  0  0  0
    8.1919   -1.9344    0.0000 N   0  0  0  0  0  0  0  0  0  0  0  0
    7.0513   -2.9085    0.0000 N   0  0  0  0  0  0  0  0  0  0  0  0
    7.1690   -4.4039    0.0000 C   0  0  0  0  0  0  0  0  0  0  0  0
    8.4479   -5.1877    0.0000 C   0  0  0  0  0  0  0  0  0  0  0  0
    8.0978   -6.6462    0.0000 C   0  0  0  0  0  0  0  0  0  0  0  0
    6.6024   -6.7639    0.0000 C   0  0  0  0  0  0  0  0  0  0  0  0
    5.8186   -8.0429    0.0000 C   0  0  0  0  0  0  0  0  0  0  0  0
    6.5344   -9.3611    0.0000 O   0  0  0  0  0  0  0  0  0  0  0  0
    4.3192   -8.0036    0.0000 N   0  0  0  0  0  0  0  0  0  0  0  0
    3.5354   -9.2826    0.0000 C   0  0  0  0  0  0  0  0  0  0  0  0
    2.0359   -9.2433    0.0000 N   0  0  0  0  0  0  0  0  0  0  0  0
    1.2522  -10.5223    0.0000 N   0  0  0  0  0  0  0  0  0  0  0  0
    1.9679  -11.8405    0.0000 N   0  0  0  0  0  0  0  0  0  0  0  0
    3.4674  -11.8797    0.0000 N   0  0  0  0  0  0  0  0  0  0  0  0
    4.2512  -10.6008    0.0000 N   0  0  0  0  0  0  0  0  0  0  0  0
    6.0284   -5.3781    0.0000 C   0  0  0  0  0  0  0  0  0  0  0  0
    4.5698   -5.0279    0.0000 O   0  0  0  0  0  0  0  0  0  0  0  0
    0.7500   -1.2990    0.0000 C   0  0  0  0  0  0  0  0  0  0  0  0
    1.5000    0.0000    0.0000 C   0  0  0  0  0  0  0  0  0  0  0  0
    0.7500    1.2990    0.0000 C   0  0  0  0  0  0  0  0  0  0  0  0
   -0.7500    1.2990    0.0000 C   0  0  0  0  0  0  0  0  0  0  0  0
   -1.5000    0.0000    0.0000 C   0  0  0  0  0  0  0  0  0  0  0  0
   -0.7500   -1.2990    0.0000 C   0  0  0  0  0  0  0  0  0  0  0  0
  1  2  1  0
  2  3  2  0
  3  4  1  0
  4  5  1  0
  5  6  1  0
  6  7  1  0
  7  8  1  0
  8  9  2  0
  8 10  1  0
 10 11  1  0
 11 12  2  0
 12 13  1  0
 13 14  2  0
 14 15  1  0
 15 16  1  0
 16 17  2  0
 17 18  1  0
 18 19  2  0
 19 20  1  0
 20 21  2  0
 20 22  1  0
 22 23  1  0
 23 24  2  0
 24 25  1  0
 25 26  2  0
 26 27  1  0
 27 28  2  0
 19 29  1  0
 29 30  2  0
  7 31  1  0
 31 32  2  0
 32 33  1  0
 33 34  2  0
 34 35  1  0
 35 36  2  0
 36  2  1  0
 15 11  1  0
 29 16  1  0
 36 31  1  0
 28 23  1  0
M  END
>  <Title>  (376) 
idAAMNgen14

$$$$

     RDKit          2D

103104  0  0  0  0  0  0  0  0999 V2000
   -2.1596   -1.0863    0.0000 C   0  0  0  0  0  0  0  0  0  0  0  0
   -2.4854    0.3779    0.0000 C   0  0  0  0  0  0  0  0  0  0  0  0
   -3.9592    0.0987    0.0000 C   0  0  0  0  0  0  0  0  0  0  0  0
   -5.4477   -0.0865    0.0000 C   0  0  0  0  0  0  0  0  0  0  0  0
   -6.9450   -0.1769    0.0000 C   0  0  0  0  0  0  0  0  0  0  0  0
   -8.4450   -0.1721    0.0000 C   0  0  0  0  0  0  0  0  0  0  0  0
   -9.9416   -0.0722    0.0000 C   0  0  0  0  0  0  0  0  0  0  0  0
  -11.4290    0.1224    0.0000 C   0  0  0  0  0  0  0  0  0  0  0  0
  -12.9010    0.4109    0.0000 C   0  0  0  0  0  0  0  0  0  0  0  0
  -14.3517    0.7923    0.0000 C   0  0  0  0  0  0  0  0  0  0  0  0
  -15.7753    1.2648    0.0000 C   0  0  0  0  0  0  0  0  0  0  0  0
  -17.1661    1.8267    0.0000 C   0  0  0  0  0  0  0  0  0  0  0  0
  -18.5184    2.4757    0.0000 C   0  0  0  0  0  0  0  0  0  0  0  0
  -19.8269    3.2092    0.0000 C   0  0  0  0  0  0  0  0  0  0  0  0
  -21.0862    4.0241    0.0000 C   0  0  0  0  0  0  0  0  0  0  0  0
  -22.2912    4.9173    0.0000 C   0  0  0  0  0  0  0  0  0  0  0  0
  -23.4372    5.8852    0.0000 C   0  0  0  0  0  0  0  0  0  0  0  0
  -24.5195    6.9237    0.0000 C   0  0  0  0  0  0  0  0  0  0  0  0
  -25.5338    8.0288    0.0000 C   0  0  0  0  0  0  0  0  0  0  0  0
  -26.4759    9.1960    0.0000 C   0  0  0  0  0  0  0  0  0  0  0  0
  -27.3421   10.4207    0.0000 C   0  0  0  0  0  0  0  0  0  0  0  0
  -28.1289   11.6978    0.0000 C   0  0  0  0  0  0  0  0  0  0  0  0
  -28.8331   13.0222    0.0000 C   0  0  0  0  0  0  0  0  0  0  0  0
  -29.4519   14.3886    0.0000 C   0  0  0  0  0  0  0  0  0  0  0  0
  -29.9828   15.7915    0.0000 C   0  0  0  0  0  0  0  0  0  0  0  0
  -30.4236   17.2253    0.0000 C   0  0  0  0  0  0  0  0  0  0  0  0
  -30.7727   18.6841    0.0000 C   0  0  0  0  0  0  0  0  0  0  0  0
  -31.0284   20.1621    0.0000 C   0  0  0  0  0  0  0  0  0  0  0  0
  -31.1900   21.6534    0.0000 C   0  0  0  0  0  0  0  0  0  0  0  0
  -31.2566   23.1519    0.0000 C   0  0  0  0  0  0  0  0  0  0  0  0
  -31.2280   24.6517    0.0000 C   0  0  0  0  0  0  0  0  0  0  0  0
  -31.1044   26.1466    0.0000 C   0  0  0  0  0  0  0  0  0  0  0  0
  -30.8862   27.6306    0.0000 C   0  0  0  0  0  0  0  0  0  0  0  0
  -30.5744   29.0978    0.0000 C   0  0  0  0  0  0  0  0  0  0  0  0
  -30.1701   30.5423    0.0000 C   0  0  0  0  0  0  0  0  0  0  0  0
  -29.6750   31.9582    0.0000 C   0  0  0  0  0  0  0  0  0  0  0  0
  -29.0911   33.3399    0.0000 C   0  0  0  0  0  0  0  0  0  0  0  0
  -28.4207   34.6818    0.0000 C   0  0  0  0  0  0  0  0  0  0  0  0
  -27.6666   35.9785    0.0000 C   0  0  0  0  0  0  0  0  0  0  0  0
  -26.8317   37.2247    0.0000 C   0  0  0  0  0  0  0  0  0  0  0  0
  -25.9195   38.4154    0.0000 C   0  0  0  0  0  0  0  0  0  0  0  0
  -24.9337   39.5459    0.0000 C   0  0  0  0  0  0  0  0  0  0  0  0
  -23.8781   40.6116    0.0000 C   0  0  0  0  0  0  0  0  0  0  0  0
  -22.7570   41.6082    0.0000 C   0  0  0  0  0  0  0  0  0  0  0  0
  -21.5750   42.5317    0.0000 C   0  0  0  0  0  0  0  0  0  0  0  0
  -20.3368   43.3784    0.0000 C   0  0  0  0  0  0  0  0  0  0  0  0
  -19.0473   44.1448    0.0000 C   0  0  0  0  0  0  0  0  0  0  0  0
  -17.7119   44.8279    0.0000 C   0  0  0  0  0  0  0  0  0  0  0  0
  -16.3359   45.4249    0.0000 C   0  0  0  0  0  0  0  0  0  0  0  0
  -14.9247   45.9335    0.0000 C   0  0  0  0  0  0  0  0  0  0  0  0
  -13.4841   46.3515    0.0000 C   0  0  0  0  0  0  0  0  0  0  0  0
  -12.0199   46.6773    0.0000 C   0  0  0  0  0  0  0  0  0  0  0  0
  -10.5380   46.9096    0.0000 C   0  0  0  0  0  0  0  0  0  0  0  0
   -9.0444   47.0475    0.0000 C   0  0  0  0  0  0  0  0  0  0  0  0
   -7.5450   47.0903    0.0000 C   0  0  0  0  0  0  0  0  0  0  0  0
   -6.0459   47.0380    0.0000 C   0  0  0  0  0  0  0  0  0  0  0  0
   -4.5532   46.8907    0.0000 C   0  0  0  0  0  0  0  0  0  0  0  0
   -3.0728   46.6490    0.0000 C   0  0  0  0  0  0  0  0  0  0  0  0
   -1.6107   46.3138    0.0000 C   0  0  0  0  0  0  0  0  0  0  0  0
   -0.1728   45.8867    0.0000 C   0  0  0  0  0  0  0  0  0  0  0  0
    1.2351   45.3692    0.0000 C   0  0  0  0  0  0  0  0  0  0  0  0
    2.6074   44.7634    0.0000 C   0  0  0  0  0  0  0  0  0  0  0  0
    3.9384   44.0719    0.0000 C   0  0  0  0  0  0  0  0  0  0  0  0
    5.2230   43.2973    0.0000 C   0  0  0  0  0  0  0  0  0  0  0  0
    6.4558   42.4428    0.0000 C   0  0  0  0  0  0  0  0  0  0  0  0
    7.6319   41.5118    0.0000 C   0  0  0  0  0  0  0  0  0  0  0  0
    8.7466   40.5081    0.0000 C   0  0  0  0  0  0  0  0  0  0  0  0
    9.7954   39.4357    0.0000 C   0  0  0  0  0  0  0  0  0  0  0  0
   10.7741   38.2990    0.0000 C   0  0  0  0  0  0  0  0  0  0  0  0
   11.6787   37.1025    0.0000 C   0  0  0  0  0  0  0  0  0  0  0  0
   12.5057   35.8510    0.0000 C   0  0  0  0  0  0  0  0  0  0  0  0
   13.2515   34.5496    0.0000 C   0  0  0  0  0  0  0  0  0  0  0  0
   13.9134   33.2035    0.0000 C   0  0  0  0  0  0  0  0  0  0  0  0
   14.4885   31.8181    0.0000 C   0  0  0  0  0  0  0  0  0  0  0  0
   14.9746   30.3991    0.0000 C   0  0  0  0  0  0  0  0  0  0  0  0
   15.3697   28.9520    0.0000 C   0  0  0  0  0  0  0  0  0  0  0  0
   15.6723   27.4829    0.0000 C   0  0  0  0  0  0  0  0  0  0  0  0
   15.8810   25.9975    0.0000 C   0  0  0  0  0  0  0  0  0  0  0  0
   15.9951   24.5018    0.0000 C   0  0  0  0  0  0  0  0  0  0  0  0
   16.0142   23.0019    0.0000 C   0  0  0  0  0  0  0  0  0  0  0  0
   15.9381   21.5039    0.0000 C   0  0  0  0  0  0  0  0  0  0  0  0
   15.7671   20.0136    0.0000 C   0  0  0  0  0  0  0  0  0  0  0  0
   15.5019   18.5373    0.0000 C   0  0  0  0  0  0  0  0  0  0  0  0
   15.1436   17.0807    0.0000 C   0  0  0  0  0  0  0  0  0  0  0  0
   14.6937   15.6497    0.0000 C   0  0  0  0  0  0  0  0  0  0  0  0
   14.1540   14.2502    0.0000 C   0  0  0  0  0  0  0  0  0  0  0  0
   13.5265   12.8878    0.0000 C   0  0  0  0  0  0  0  0  0  0  0  0
   12.8139   11.5678    0.0000 C   0  0  0  0  0  0  0  0  0  0  0  0
   12.0190   10.2958    0.0000 C   0  0  0  0  0  0  0  0  0  0  0  0
   11.1451    9.0767    0.0000 C   0  0  0  0  0  0  0  0  0  0  0  0
   10.1955    7.9154    0.0000 C   0  0  0  0  0  0  0  0  0  0  0  0
    9.1743    6.8168    0.0000 C   0  0  0  0  0  0  0  0  0  0  0  0
    8.0854    5.7851    0.0000 C   0  0  0  0  0  0  0  0  0  0  0  0
    6.9333    4.8246    0.0000 C   0  0  0  0  0  0  0  0  0  0  0  0
    5.7226    3.9391    0.0000 C   0  0  0  0  0  0  0  0  0  0  0  0
    4.4581    3.1321    0.0000 C   0  0  0  0  0  0  0  0  0  0  0  0
    3.1450    2.4070    0.0000 C   0  0  0  0  0  0  0  0  0  0  0  0
    1.7886    1.7666    0.0000 C   0  0  0  0  0  0  0  0  0  0  0  0
    0.3943    1.2135    0.0000 C   0  0  0  0  0  0  0  0  0  0  0  0
    1.2760    0.0000    0.0000 C   0  0  0  0  0  0  0  0  0  0  0  0
    0.3943   -1.2135    0.0000 C   0  0  0  0  0  0  0  0  0  0  0  0
   -1.0323   -0.7500    0.0000 C   0  0  0  0  0  0  0  0  0  0  0  0
   -1.0323    0.7500    0.0000 C   0  0  0  0  0  0  0  0  0  0  0  0
  1  2  1  0
  2  3  1  0
  3  4  2  0
  4  5  1  0
  5  6  1  0
  6  7  1  0
  7  8  1  0
  8  9  1  0
  9 10  1  0
 10 11  1  0
 11 12  1  0
 12 13  1  0
 13 14  1  0
 14 15  1  0
 15 16  1  0
 16 17  1  0
 17 18  1  0
 18 19  1  0
 19 20  1  0
 20 21  1  0
 21 22  1  0
 22 23  1  0
 23 24  1  0
 24 25  1  0
 25 26  1  0
 26 27  1  0
 27 28  1  0
 28 29  1  0
 29 30  1  0
 30 31  1  0
 31 32  1  0
 32 33  1  0
 33 34  1  0
 34 35  1  0
 35 36  1  0
 36 37  1  0
 37 38  1  0
 38 39  1  0
 39 40  1  0
 40 41  1  0
 41 42  1  0
 42 43  1  0
 43 44  1  0
 44 45  1  0
 45 46  1  0
 46 47  1  0
 47 48  1  0
 48 49  1  0
 49 50  1  0
 50 51  1  0
 51 52  1  0
 52 53  1  0
 53 54  1  0
 54 55  1  0
 55 56  1  0
 56 57  1  0
 57 58  1  0
 58 59  1  0
 59 60  1  0
 60 61  1  0
 61 62  1  0
 62 63  1  0
 63 64  1  0
 64 65  1  0
 65 66  1  0
 66 67  1  0
 67 68  1  0
 68 69  1  0
 69 70  1  0
 70 71  2  0
 71 72  1  0
 72 73  2  0
 73 74  1  0
 74 75  2  0
 75 76  1  0
 76 77  2  0
 77 78  1  0
 78 79  2  0
 79 80  1  0
 80 81  2  0
 81 82  1  0
 82 83  2  0
 83 84  1  0
 84 85  2  0
 85 86  1  0
 86 87  2  0
 87 88  1  0
 88 89  2  0
 89 90  1  0
 90 91  2  0
 91 92  1  0
 92 93  2  0
 93 94  1  0
 94 95  2  0
 95 96  1  0
 96 97  2  0
 97 98  1  0
 98 99  2  0
 99100  1  0
100101  2  0
101102  1  0
102103  2  0
103  2  1  0
103 99  1  0
M  END
>  <Title>  (377) 
idAAMOgen14

$$$$

     RDKit          2D

 26 25  0  0  0  0  0  0  0  0999 V2000
    0.0000    0.0000    0.0000 C   0  0  0  0  0  0  0  0  0  0  0  0
   -0.0000   -1.5000    0.0000 C   0  0  0  0  0  0  0  0  0  0  0  0
   -0.0000   -3.0000    0.0000 C   0  0  0  0  0  0  0  0  0  0  0  0
    1.2990   -3.7500    0.0000 C   0  0  0  0  0  0  0  0  0  0  0  0
    1.2990   -5.2500    0.0000 C   0  0  0  0  0  0  0  0  0  0  0  0
    2.5981   -6.0000    0.0000 C   0  0  0  0  0  0  0  0  0  0  0  0
    2.5981   -7.5000    0.0000 C   0  0  0  0  0  0  0  0  0  0  0  0
    3.8971   -8.2500    0.0000 C   0  0  0  0  0  0  0  0  0  0  0  0
    5.1962   -9.0000    0.0000 C   0  0  0  0  0  0  0  0  0  0  0  0
    6.4952   -9.7500    0.0000 C   0  0  0  0  0  0  0  0  0  0  0  0
    7.7942  -10.5000    0.0000 C   0  0  0  0  0  0  0  0  0  0  0  0
    9.0933  -11.2500    0.0000 C   0  0  0  0  0  0  0  0  0  0  0  0
   10.3923  -12.0000    0.0000 C   0  0  0  0  0  0  0  0  0  0  0  0
   11.6913  -12.7500    0.0000 C   0  0  0  0  0  0  0  0  0  0  0  0
   12.9904  -13.5000    0.0000 C   0  0  0  0  0  0  0  0  0  0  0  0
   14.2894  -14.2500    0.0000 C   0  0  0  0  0  0  0  0  0  0  0  0
   15.5885  -15.0000    0.0000 C   0  0  0  0  0  0  0  0  0  0  0  0
   16.8875  -15.7500    0.0000 C   0  0  0  0  0  0  0  0  0  0  0  0
   18.1865  -16.5000    0.0000 C   0  0  0  0  0  0  0  0  0  0  0  0
   19.4856  -17.2500    0.0000 C   0  0  0  0  0  0  0  0  0  0  0  0
   20.7846  -18.0000    0.0000 C   0  0  0  0  0  0  0  0  0  0  0  0
   22.0836  -18.7500    0.0000 C   0  0  0  0  0  0  0  0  0  0  0  0
   23.3827  -19.5000    0.0000 C   0  0  0  0  0  0  0  0  0  0  0  0
   24.6817  -20.2500    0.0000 C   0  0  0  0  0  0  0  0  0  0  0  0
   24.6817  -21.7500    0.0000 C   0  0  0  0  0  0  0  0  0  0  0  0
   25.9808  -19.5000    0.0000 C   0  0  0  0  0  0  0  0  0  0  0  0
  1  2  3  0
  2  3  1  0
  3  4  1  0
  4  5  1  0
  5  6  1  0
  6  7  1  0
  7  8  1  0
  8  9  3  0
  9 10  1  0
 10 11  3  0
 11 12  1  0
 12 13  3  0
 13 14  1  0
 14 15  3  0
 15 16  1  0
 16 17  3  0
 17 18  1  0
 18 19  3  0
 19 20  1  0
 20 21  3  0
 21 22  1  0
 22 23  3  0
 23 24  1  0
 24 25  1  0
 24 26  1  0
M  END
>  <Title>  (378) 
idAAMPgen14

$$$$

     RDKit          2D

 44 49  0  0  0  0  0  0  0  0999 V2000
   -3.1771   -5.9156    0.0000 C   0  0  0  0  0  0  0  0  0  0  0  0
   -1.9635   -5.0339    0.0000 C   0  0  0  0  0  0  0  0  0  0  0  0
   -0.7500   -5.9156    0.0000 C   0  0  0  0  0  0  0  0  0  0  0  0
    0.7500   -5.9156    0.0000 C   0  0  0  0  0  0  0  0  0  0  0  0
    1.9635   -5.0339    0.0000 C   0  0  0  0  0  0  0  0  0  0  0  0
    2.4271   -3.6073    0.0000 C   0  0  0  0  0  0  0  0  0  0  0  0
    1.9635   -2.1807    0.0000 C   0  0  0  0  0  0  0  0  0  0  0  0
    3.1771   -1.2990    0.0000 C   0  0  0  0  0  0  0  0  0  0  0  0
    3.0203    0.1927    0.0000 O   0  0  0  0  0  0  0  0  0  0  0  0
    4.5474   -1.9091    0.0000 N   0  0  0  0  0  0  0  0  0  0  0  0
    5.7609   -1.0275    0.0000 C   0  0  0  0  0  0  0  0  0  0  0  0
    5.7609    0.4725    0.0000 N   0  0  0  0  0  0  0  0  0  0  0  0
    7.1875    0.9361    0.0000 N   0  0  0  0  0  0  0  0  0  0  0  0
    8.0692   -0.2775    0.0000 N   0  0  0  0  0  0  0  0  0  0  0  0
    7.1875   -1.4910    0.0000 N   0  0  0  0  0  0  0  0  0  0  0  0
    7.6510   -2.9176    0.0000 N   0  0  0  0  0  0  0  0  0  0  0  0
    9.0776   -3.3811    0.0000 C   0  0  0  0  0  0  0  0  0  0  0  0
    9.0776   -4.8811    0.0000 C   0  0  0  0  0  0  0  0  0  0  0  0
    7.6510   -5.3446    0.0000 C   0  0  0  0  0  0  0  0  0  0  0  0
    7.1875   -6.7712    0.0000 C   0  0  0  0  0  0  0  0  0  0  0  0
    8.1912   -7.8859    0.0000 O   0  0  0  0  0  0  0  0  0  0  0  0
    5.7203   -7.0831    0.0000 N   0  0  0  0  0  0  0  0  0  0  0  0
    5.2567   -8.5097    0.0000 C   0  0  0  0  0  0  0  0  0  0  0  0
    3.7895   -8.8215    0.0000 N   0  0  0  0  0  0  0  0  0  0  0  0
    3.3260  -10.2481    0.0000 N   0  0  0  0  0  0  0  0  0  0  0  0
    4.3297  -11.3628    0.0000 N   0  0  0  0  0  0  0  0  0  0  0  0
    5.7969  -11.0510    0.0000 N   0  0  0  0  0  0  0  0  0  0  0  0
    6.2604   -9.6244    0.0000 N   0  0  0  0  0  0  0  0  0  0  0  0
    6.7693   -4.1311    0.0000 C   0  0  0  0  0  0  0  0  0  0  0  0
    5.2693   -4.1311    0.0000 O   0  0  0  0  0  0  0  0  0  0  0  0
    0.7500   -1.2990    0.0000 C   0  0  0  0  0  0  0  0  0  0  0  0
    1.5000    0.0000    0.0000 C   0  0  0  0  0  0  0  0  0  0  0  0
    0.7500    1.2990    0.0000 C   0  0  0  0  0  0  0  0  0  0  0  0
   -0.7500    1.2990    0.0000 C   0  0  0  0  0  0  0  0  0  0  0  0
   -1.5000    0.0000    0.0000 C   0  0  0  0  0  0  0  0  0  0  0  0
   -0.7500   -1.2990    0.0000 C   0  0  0  0  0  0  0  0  0  0  0  0
   -1.9635   -2.1807    0.0000 C   0  0  0  0  0  0  0  0  0  0  0  0
   -2.9672   -1.0660    0.0000 C   0  0  0  0  0  0  0  0  0  0  0  0
   -4.4344   -1.3779    0.0000 C   0  0  0  0  0  0  0  0  0  0  0  0
   -4.8980   -2.8045    0.0000 C   0  0  0  0  0  0  0  0  0  0  0  0
   -6.3652   -3.1163    0.0000 C   0  0  0  0  0  0  0  0  0  0  0  0
   -7.8324   -3.4282    0.0000 N   0  0  0  0  0  0  0  0  0  0  0  0
   -3.8943   -3.9192    0.0000 C   0  0  0  0  0  0  0  0  0  0  0  0
   -2.4271   -3.6073    0.0000 C   0  0  0  0  0  0  0  0  0  0  0  0
  1  2  1  0
  2  3  1  0
  3  4  2  0
  4  5  1  0
  5  6  1  0
  6  7  1  0
  7  8  1  0
  8  9  2  0
  8 10  1  0
 10 11  1  0
 11 12  2  0
 12 13  1  0
 13 14  2  0
 14 15  1  0
 15 16  1  0
 16 17  1  0
 17 18  1  0
 18 19  1  0
 19 20  1  0
 20 21  2  0
 20 22  1  0
 22 23  1  0
 23 24  2  0
 24 25  1  0
 25 26  2  0
 26 27  1  0
 27 28  2  0
 19 29  1  0
 29 30  2  0
  7 31  1  0
 31 32  2  0
 32 33  1  0
 33 34  2  0
 34 35  1  0
 35 36  2  0
 36 37  1  0
 37 38  2  0
 38 39  1  0
 39 40  2  0
 40 41  1  0
 41 42  3  0
 40 43  1  0
 43 44  2  0
 44  2  1  0
 15 11  1  0
 29 16  1  0
 36 31  1  0
 44 37  1  0
 28 23  1  0
M  END
>  <Title>  (379) 
idAAMQgen14

$$$$

     RDKit          2D

  8  7  0  0  0  0  0  0  0  0999 V2000
    0.0000    0.0000    0.0000 C   0  0  0  0  0  0  0  0  0  0  0  0
    1.2990    0.7500    0.0000 N   0  0  0  0  0  0  0  0  0  0  0  0
    2.5981   -0.0000    0.0000 C   0  0  0  0  0  0  0  0  0  0  0  0
    3.8971    0.7500    0.0000 C   0  0  0  0  0  0  0  0  0  0  0  0
    5.1962   -0.0000    0.0000 C   0  0  0  0  0  0  0  0  0  0  0  0
    6.4952    0.7500    0.0000 C   0  0  0  0  0  0  0  0  0  0  0  0
    7.7942   -0.0000    0.0000 C   0  0  0  0  0  0  0  0  0  0  0  0
    6.4952    2.2500    0.0000 C   0  0  0  0  0  0  0  0  0  0  0  0
  1  2  1  0
  2  3  1  0
  3  4  1  0
  4  5  1  0
  5  6  1  0
  6  7  1  0
  6  8  1  0
M  END
>  <Title>  (380) 
idAAMRgen14

$$$$

     RDKit          2D

 79 80  0  0  0  0  0  0  0  0999 V2000
   -0.0120   -3.1327    0.0000 C   0  0  0  0  0  0  0  0  0  0  0  0
    1.2819   -3.8915    0.0000 C   0  0  0  0  0  0  0  0  0  0  0  0
    0.5855   -5.2200    0.0000 C   0  0  0  0  0  0  0  0  0  0  0  0
    0.0186   -6.6088    0.0000 C   0  0  0  0  0  0  0  0  0  0  0  0
   -0.4138   -8.0451    0.0000 C   0  0  0  0  0  0  0  0  0  0  0  0
   -0.7077   -9.5160    0.0000 C   0  0  0  0  0  0  0  0  0  0  0  0
   -0.8604  -11.0082    0.0000 C   0  0  0  0  0  0  0  0  0  0  0  0
   -0.8706  -12.5082    0.0000 C   0  0  0  0  0  0  0  0  0  0  0  0
   -0.7382  -14.0023    0.0000 C   0  0  0  0  0  0  0  0  0  0  0  0
   -0.4643  -15.4771    0.0000 C   0  0  0  0  0  0  0  0  0  0  0  0
   -0.0515  -16.9192    0.0000 C   0  0  0  0  0  0  0  0  0  0  0  0
    0.4965  -18.3155    0.0000 C   0  0  0  0  0  0  0  0  0  0  0  0
    1.1747  -19.6534    0.0000 C   0  0  0  0  0  0  0  0  0  0  0  0
    1.9771  -20.9208    0.0000 C   0  0  0  0  0  0  0  0  0  0  0  0
    2.8963  -22.1061    0.0000 C   0  0  0  0  0  0  0  0  0  0  0  0
    3.9240  -23.1987    0.0000 C   0  0  0  0  0  0  0  0  0  0  0  0
    5.0509  -24.1887    0.0000 C   0  0  0  0  0  0  0  0  0  0  0  0
    6.2669  -25.0671    0.0000 C   0  0  0  0  0  0  0  0  0  0  0  0
    7.5608  -25.8259    0.0000 C   0  0  0  0  0  0  0  0  0  0  0  0
    8.9209  -26.4583    0.0000 C   0  0  0  0  0  0  0  0  0  0  0  0
   10.3351  -26.9585    0.0000 C   0  0  0  0  0  0  0  0  0  0  0  0
   11.7904  -27.3221    0.0000 C   0  0  0  0  0  0  0  0  0  0  0  0
   13.2736  -27.5456    0.0000 C   0  0  0  0  0  0  0  0  0  0  0  0
   14.7714  -27.6272    0.0000 C   0  0  0  0  0  0  0  0  0  0  0  0
   16.2701  -27.5660    0.0000 C   0  0  0  0  0  0  0  0  0  0  0  0
   17.7563  -27.3626    0.0000 C   0  0  0  0  0  0  0  0  0  0  0  0
   19.2164  -27.0189    0.0000 C   0  0  0  0  0  0  0  0  0  0  0  0
   20.6372  -26.5380    0.0000 C   0  0  0  0  0  0  0  0  0  0  0  0
   22.0058  -25.9241    0.0000 C   0  0  0  0  0  0  0  0  0  0  0  0
   23.3099  -25.1830    0.0000 C   0  0  0  0  0  0  0  0  0  0  0  0
   24.5377  -24.3212    0.0000 C   0  0  0  0  0  0  0  0  0  0  0  0
   25.6780  -23.3467    0.0000 C   0  0  0  0  0  0  0  0  0  0  0  0
   26.7204  -22.2681    0.0000 C   0  0  0  0  0  0  0  0  0  0  0  0
   27.6557  -21.0954    0.0000 C   0  0  0  0  0  0  0  0  0  0  0  0
   28.4752  -19.8390    0.0000 C   0  0  0  0  0  0  0  0  0  0  0  0
   29.1716  -18.5105    0.0000 C   0  0  0  0  0  0  0  0  0  0  0  0
   29.7385  -17.1218    0.0000 C   0  0  0  0  0  0  0  0  0  0  0  0
   30.1709  -15.6854    0.0000 C   0  0  0  0  0  0  0  0  0  0  0  0
   30.4648  -14.2145    0.0000 C   0  0  0  0  0  0  0  0  0  0  0  0
   30.6175  -12.7223    0.0000 C   0  0  0  0  0  0  0  0  0  0  0  0
   30.6277  -11.2223    0.0000 C   0  0  0  0  0  0  0  0  0  0  0  0
   30.4953   -9.7282    0.0000 C   0  0  0  0  0  0  0  0  0  0  0  0
   30.2215   -8.2534    0.0000 C   0  0  0  0  0  0  0  0  0  0  0  0
   29.8087   -6.8113    0.0000 C   0  0  0  0  0  0  0  0  0  0  0  0
   29.2606   -5.4150    0.0000 C   0  0  0  0  0  0  0  0  0  0  0  0
   28.5824   -4.0771    0.0000 C   0  0  0  0  0  0  0  0  0  0  0  0
   27.7800   -2.8098    0.0000 C   0  0  0  0  0  0  0  0  0  0  0  0
   26.8608   -1.6244    0.0000 C   0  0  0  0  0  0  0  0  0  0  0  0
   25.8331   -0.5318    0.0000 C   0  0  0  0  0  0  0  0  0  0  0  0
   24.7062    0.4582    0.0000 C   0  0  0  0  0  0  0  0  0  0  0  0
   23.4903    1.3366    0.0000 C   0  0  0  0  0  0  0  0  0  0  0  0
   22.1964    2.0954    0.0000 C   0  0  0  0  0  0  0  0  0  0  0  0
   20.8362    2.7278    0.0000 C   0  0  0  0  0  0  0  0  0  0  0  0
   19.4221    3.2280    0.0000 C   0  0  0  0  0  0  0  0  0  0  0  0
   17.9668    3.5915    0.0000 C   0  0  0  0  0  0  0  0  0  0  0  0
   16.4835    3.8151    0.0000 C   0  0  0  0  0  0  0  0  0  0  0  0
   14.9858    3.8967    0.0000 C   0  0  0  0  0  0  0  0  0  0  0  0
   13.4870    3.8355    0.0000 C   0  0  0  0  0  0  0  0  0  0  0  0
   12.0008    3.6321    0.0000 C   0  0  0  0  0  0  0  0  0  0  0  0
   10.5408    3.2884    0.0000 C   0  0  0  0  0  0  0  0  0  0  0  0
    9.1200    2.8074    0.0000 C   0  0  0  0  0  0  0  0  0  0  0  0
    7.7513    2.1936    0.0000 C   0  0  0  0  0  0  0  0  0  0  0  0
    6.4472    1.4525    0.0000 C   0  0  0  0  0  0  0  0  0  0  0  0
    5.2194    0.5907    0.0000 C   0  0  0  0  0  0  0  0  0  0  0  0
    4.0792   -0.3839    0.0000 C   0  0  0  0  0  0  0  0  0  0  0  0
    3.0367   -1.4624    0.0000 C   0  0  0  0  0  0  0  0  0  0  0  0
    3.3705    0.0000    0.0000 C   0  0  0  0  0  0  0  0  0  0  0  0
    3.0367    1.4624    0.0000 C   0  0  0  0  0  0  0  0  0  0  0  0
    2.1015    2.6351    0.0000 C   0  0  0  0  0  0  0  0  0  0  0  0
    0.7500    3.2860    0.0000 C   0  0  0  0  0  0  0  0  0  0  0  0
   -0.7500    3.2860    0.0000 C   0  0  0  0  0  0  0  0  0  0  0  0
   -2.1015    2.6351    0.0000 C   0  0  0  0  0  0  0  0  0  0  0  0
   -3.0367    1.4624    0.0000 C   0  0  0  0  0  0  0  0  0  0  0  0
   -3.3705    0.0000    0.0000 C   0  0  0  0  0  0  0  0  0  0  0  0
   -3.0367   -1.4624    0.0000 C   0  0  0  0  0  0  0  0  0  0  0  0
   -2.1015   -2.6351    0.0000 C   0  0  0  0  0  0  0  0  0  0  0  0
   -0.7500   -3.2860    0.0000 C   0  0  0  0  0  0  0  0  0  0  0  0
    0.7500   -3.2860    0.0000 C   0  0  0  0  0  0  0  0  0  0  0  0
    2.1015   -2.6351    0.0000 C   0  0  0  0  0  0  0  0  0  0  0  0
  1  2  1  0
  2  3  1  0
  3  4  1  0
  4  5  1  0
  5  6  1  0
  6  7  1  0
  7  8  1  0
  8  9  1  0
  9 10  1  0
 10 11  1  0
 11 12  1  0
 12 13  1  0
 13 14  1  0
 14 15  1  0
 15 16  1  0
 16 17  1  0
 17 18  1  0
 18 19  1  0
 19 20  1  0
 20 21  1  0
 21 22  1  0
 22 23  1  0
 23 24  1  0
 24 25  1  0
 25 26  1  0
 26 27  1  0
 27 28  1  0
 28 29  1  0
 29 30  1  0
 30 31  1  0
 31 32  1  0
 32 33  1  0
 33 34  1  0
 34 35  1  0
 35 36  1  0
 36 37  1  0
 37 38  1  0
 38 39  1  0
 39 40  1  0
 40 41  1  0
 41 42  1  0
 42 43  1  0
 43 44  1  0
 44 45  1  0
 45 46  1  0
 46 47  1  0
 47 48  1  0
 48 49  1  0
 49 50  1  0
 50 51  1  0
 51 52  1  0
 52 53  1  0
 53 54  1  0
 54 55  1  0
 55 56  1  0
 56 57  1  0
 57 58  1  0
 58 59  1  0
 59 60  1  0
 60 61  1  0
 61 62  1  0
 62 63  1  0
 63 64  1  0
 64 65  1  0
 65 66  1  0
 66 67  1  0
 67 68  1  0
 68 69  2  0
 69 70  1  0
 70 71  2  0
 71 72  1  0
 72 73  2  0
 73 74  1  0
 74 75  2  0
 75 76  1  0
 76 77  2  0
 77 78  1  0
 78 79  2  0
 79  2  1  0
 79 66  1  0
M  END
>  <Title>  (381) 
idAAMSgen14

$$$$

     RDKit          2D

 32 36  0  0  0  0  0  0  0  0999 V2000
   -3.0000   -2.5981    0.0000 C   0  0  0  0  0  0  0  0  0  0  0  0
   -1.5000   -2.5981    0.0000 C   0  0  0  0  0  0  0  0  0  0  0  0
   -0.7500   -3.8971    0.0000 C   0  0  0  0  0  0  0  0  0  0  0  0
    0.7500   -3.8971    0.0000 C   0  0  0  0  0  0  0  0  0  0  0  0
    1.5000   -2.5981    0.0000 C   0  0  0  0  0  0  0  0  0  0  0  0
    3.0000   -2.5981    0.0000 C   0  0  0  0  0  0  0  0  0  0  0  0
    3.7500   -1.2990    0.0000 O   0  0  0  0  0  0  0  0  0  0  0  0
    3.7500   -3.8971    0.0000 N   0  0  0  0  0  0  0  0  0  0  0  0
    5.2500   -3.8971    0.0000 C   0  0  0  0  0  0  0  0  0  0  0  0
    6.1317   -2.6836    0.0000 N   0  0  0  0  0  0  0  0  0  0  0  0
    7.5583   -3.1471    0.0000 N   0  0  0  0  0  0  0  0  0  0  0  0
    7.5583   -4.6471    0.0000 N   0  0  0  0  0  0  0  0  0  0  0  0
    6.1317   -5.1106    0.0000 N   0  0  0  0  0  0  0  0  0  0  0  0
    5.6682   -6.5372    0.0000 C   0  0  0  0  0  0  0  0  0  0  0  0
    5.9800   -8.0044    0.0000 C   0  0  0  0  0  0  0  0  0  0  0  0
    6.9837   -9.1192    0.0000 C   0  0  0  0  0  0  0  0  0  0  0  0
    8.4509   -8.8073    0.0000 O   0  0  0  0  0  0  0  0  0  0  0  0
    6.5202  -10.5457    0.0000 N   0  0  0  0  0  0  0  0  0  0  0  0
    7.5239  -11.6605    0.0000 C   0  0  0  0  0  0  0  0  0  0  0  0
    7.0604  -13.0871    0.0000 N   0  0  0  0  0  0  0  0  0  0  0  0
    8.0641  -14.2018    0.0000 N   0  0  0  0  0  0  0  0  0  0  0  0
    9.5313  -13.8899    0.0000 N   0  0  0  0  0  0  0  0  0  0  0  0
    9.9948  -12.4633    0.0000 N   0  0  0  0  0  0  0  0  0  0  0  0
    8.9911  -11.3486    0.0000 N   0  0  0  0  0  0  0  0  0  0  0  0
    4.5534   -7.5409    0.0000 C   0  0  0  0  0  0  0  0  0  0  0  0
    3.0862   -7.8528    0.0000 O   0  0  0  0  0  0  0  0  0  0  0  0
    0.7500   -1.2990    0.0000 C   0  0  0  0  0  0  0  0  0  0  0  0
    1.5000    0.0000    0.0000 C   0  0  0  0  0  0  0  0  0  0  0  0
    0.7500    1.2990    0.0000 C   0  0  0  0  0  0  0  0  0  0  0  0
   -0.7500    1.2990    0.0000 C   0  0  0  0  0  0  0  0  0  0  0  0
   -1.5000    0.0000    0.0000 C   0  0  0  0  0  0  0  0  0  0  0  0
   -0.7500   -1.2990    0.0000 C   0  0  0  0  0  0  0  0  0  0  0  0
  1  2  1  0
  2  3  1  0
  3  4  2  0
  4  5  1  0
  5  6  1  0
  6  7  2  0
  6  8  1  0
  8  9  1  0
  9 10  2  0
 10 11  1  0
 11 12  2  0
 12 13  1  0
 13 14  1  0
 14 15  2  0
 15 16  1  0
 16 17  2  0
 16 18  1  0
 18 19  1  0
 19 20  2  0
 20 21  1  0
 21 22  2  0
 22 23  1  0
 23 24  2  0
 15 25  1  0
 25 26  2  0
  5 27  1  0
 27 28  2  0
 28 29  1  0
 29 30  2  0
 30 31  1  0
 31 32  2  0
 32  2  1  0
 13  9  1  0
 25 14  1  0
 32 27  1  0
 24 19  1  0
M  END
>  <Title>  (382) 
idAAMTgen14

$$$$

     RDKit          2D

  8  7  0  0  0  0  0  0  0  0999 V2000
    0.0000    0.0000    0.0000 C   0  0  0  0  0  0  0  0  0  0  0  0
   -0.0000   -1.5000    0.0000 C   0  0  0  0  0  0  0  0  0  0  0  0
   -0.0000   -3.0000    0.0000 C   0  0  0  0  0  0  0  0  0  0  0  0
    1.2990   -3.7500    0.0000 C   0  0  0  0  0  0  0  0  0  0  0  0
    1.2990   -5.2500    0.0000 C   0  0  0  0  0  0  0  0  0  0  0  0
    2.5981   -6.0000    0.0000 N   0  0  0  0  0  0  0  0  0  0  0  0
   -0.0000   -6.0000    0.0000 N   0  0  0  0  0  0  0  0  0  0  0  0
   -0.0000   -7.5000    0.0000 C   0  0  0  0  0  0  0  0  0  0  0  0
  1  2  3  0
  2  3  1  0
  3  4  1  0
  4  5  1  0
  5  6  1  0
  5  7  1  0
  7  8  1  0
M  END
>  <Title>  (383) 
idAAMUgen14

$$$$

     RDKit          2D

  9  9  0  0  0  0  0  0  0  0999 V2000
    5.0260   -1.2990    0.0000 C   0  0  0  0  0  0  0  0  0  0  0  0
    3.5260   -1.2990    0.0000 C   0  0  0  0  0  0  0  0  0  0  0  0
    2.7760   -2.5981    0.0000 O   0  0  0  0  0  0  0  0  0  0  0  0
    2.7760    0.0000    0.0000 N   0  0  0  0  0  0  0  0  0  0  0  0
    1.2760    0.0000    0.0000 C   0  0  0  0  0  0  0  0  0  0  0  0
    0.3943    1.2135    0.0000 C   0  0  0  0  0  0  0  0  0  0  0  0
   -1.0323    0.7500    0.0000 C   0  0  0  0  0  0  0  0  0  0  0  0
   -1.0323   -0.7500    0.0000 C   0  0  0  0  0  0  0  0  0  0  0  0
    0.3943   -1.2135    0.0000 C   0  0  0  0  0  0  0  0  0  0  0  0
  1  2  1  0
  2  3  2  0
  2  4  1  0
  4  5  1  0
  5  6  2  0
  6  7  1  0
  7  8  2  0
  8  9  1  0
  9  5  1  0
M  END
>  <Title>  (384) 
idAAMVgen14

$$$$

     RDKit          2D

  9  9  0  0  0  0  0  0  0  0999 V2000
    5.2500   -1.2990    0.0000 C   0  0  0  0  0  0  0  0  0  0  0  0
    3.7500   -1.2990    0.0000 C   0  0  0  0  0  0  0  0  0  0  0  0
    3.0000    0.0000    0.0000 C   0  0  0  0  0  0  0  0  0  0  0  0
    1.5000    0.0000    0.0000 C   0  0  0  0  0  0  0  0  0  0  0  0
    0.7500   -1.2990    0.0000 C   0  0  0  0  0  0  0  0  0  0  0  0
   -0.7500   -1.2990    0.0000 C   0  0  0  0  0  0  0  0  0  0  0  0
   -1.5000    0.0000    0.0000 C   0  0  0  0  0  0  0  0  0  0  0  0
   -0.7500    1.2990    0.0000 C   0  0  0  0  0  0  0  0  0  0  0  0
    0.7500    1.2990    0.0000 N   0  0  0  0  0  0  0  0  0  0  0  0
  1  2  1  0
  2  3  1  0
  3  4  1  0
  4  5  2  0
  5  6  1  0
  6  7  1  0
  7  8  1  0
  8  9  2  0
  9  4  1  0
M  END
>  <Title>  (385) 
idAAMWgen14

$$$$

     RDKit          2D

 38 42  0  0  0  0  0  0  0  0999 V2000
   -6.0000   -5.1962    0.0000 C   0  0  0  0  0  0  0  0  0  0  0  0
   -5.2500   -3.8971    0.0000 C   0  0  0  0  0  0  0  0  0  0  0  0
   -6.0000   -2.5981    0.0000 O   0  0  0  0  0  0  0  0  0  0  0  0
   -3.7500   -3.8971    0.0000 N   0  0  0  0  0  0  0  0  0  0  0  0
   -3.0000   -2.5981    0.0000 C   0  0  0  0  0  0  0  0  0  0  0  0
   -1.5000   -2.5981    0.0000 C   0  0  0  0  0  0  0  0  0  0  0  0
   -0.7500   -3.8971    0.0000 C   0  0  0  0  0  0  0  0  0  0  0  0
    0.7500   -3.8971    0.0000 C   0  0  0  0  0  0  0  0  0  0  0  0
    1.5000   -2.5981    0.0000 C   0  0  0  0  0  0  0  0  0  0  0  0
    3.0000   -2.5981    0.0000 C   0  0  0  0  0  0  0  0  0  0  0  0
    3.7500   -1.2990    0.0000 O   0  0  0  0  0  0  0  0  0  0  0  0
    3.7500   -3.8971    0.0000 N   0  0  0  0  0  0  0  0  0  0  0  0
    5.2500   -3.8971    0.0000 C   0  0  0  0  0  0  0  0  0  0  0  0
    6.1317   -2.6836    0.0000 N   0  0  0  0  0  0  0  0  0  0  0  0
    7.5583   -3.1471    0.0000 N   0  0  0  0  0  0  0  0  0  0  0  0
    7.5583   -4.6471    0.0000 N   0  0  0  0  0  0  0  0  0  0  0  0
    6.1317   -5.1106    0.0000 N   0  0  0  0  0  0  0  0  0  0  0  0
    5.6682   -6.5372    0.0000 C   0  0  0  0  0  0  0  0  0  0  0  0
    6.5498   -7.7508    0.0000 C   0  0  0  0  0  0  0  0  0  0  0  0
    5.6682   -8.9643    0.0000 C   0  0  0  0  0  0  0  0  0  0  0  0
    4.2416   -8.5008    0.0000 C   0  0  0  0  0  0  0  0  0  0  0  0
    3.0280   -9.3824    0.0000 C   0  0  0  0  0  0  0  0  0  0  0  0
    3.1848  -10.8742    0.0000 O   0  0  0  0  0  0  0  0  0  0  0  0
    1.6577   -8.7723    0.0000 N   0  0  0  0  0  0  0  0  0  0  0  0
    0.4442   -9.6540    0.0000 C   0  0  0  0  0  0  0  0  0  0  0  0
   -0.9261   -9.0439    0.0000 N   0  0  0  0  0  0  0  0  0  0  0  0
   -2.1396   -9.9256    0.0000 N   0  0  0  0  0  0  0  0  0  0  0  0
   -1.9829  -11.4174    0.0000 N   0  0  0  0  0  0  0  0  0  0  0  0
   -0.6125  -12.0275    0.0000 N   0  0  0  0  0  0  0  0  0  0  0  0
    0.6010  -11.1458    0.0000 N   0  0  0  0  0  0  0  0  0  0  0  0
    4.2416   -7.0008    0.0000 C   0  0  0  0  0  0  0  0  0  0  0  0
    3.0280   -6.1191    0.0000 O   0  0  0  0  0  0  0  0  0  0  0  0
    0.7500   -1.2990    0.0000 C   0  0  0  0  0  0  0  0  0  0  0  0
    1.5000    0.0000    0.0000 C   0  0  0  0  0  0  0  0  0  0  0  0
    0.7500    1.2990    0.0000 C   0  0  0  0  0  0  0  0  0  0  0  0
   -0.7500    1.2990    0.0000 C   0  0  0  0  0  0  0  0  0  0  0  0
   -1.5000    0.0000    0.0000 C   0  0  0  0  0  0  0  0  0  0  0  0
   -0.7500   -1.2990    0.0000 C   0  0  0  0  0  0  0  0  0  0  0  0
  1  2  1  0
  2  3  2  0
  2  4  1  0
  4  5  1  0
  5  6  1  0
  6  7  2  0
  7  8  1  0
  8  9  2  0
  9 10  1  0
 10 11  2  0
 10 12  1  0
 12 13  1  0
 13 14  2  0
 14 15  1  0
 15 16  2  0
 16 17  1  0
 17 18  1  0
 18 19  2  0
 19 20  1  0
 20 21  2  0
 21 22  1  0
 22 23  2  0
 22 24  1  0
 24 25  1  0
 25 26  2  0
 26 27  1  0
 27 28  2  0
 28 29  1  0
 29 30  2  0
 21 31  1  0
 31 32  2  0
  9 33  1  0
 33 34  2  0
 34 35  1  0
 35 36  2  0
 36 37  1  0
 37 38  2  0
 38  6  1  0
 17 13  1  0
 31 18  1  0
 38 33  1  0
 30 25  1  0
M  END
>  <Title>  (386) 
idAAMXgen14

$$$$

     RDKit          2D

 10 10  0  0  0  0  0  0  0  0999 V2000
    5.2500    1.2990    0.0000 C   0  0  0  0  0  0  0  0  0  0  0  0
    3.7500    1.2990    0.0000 C   0  0  0  0  0  0  0  0  0  0  0  0
    3.0000    0.0000    0.0000 C   0  0  0  0  0  0  0  0  0  0  0  0
    3.7500   -1.2990    0.0000 C   0  0  0  0  0  0  0  0  0  0  0  0
    1.5000    0.0000    0.0000 C   0  0  0  0  0  0  0  0  0  0  0  0
    0.7500   -1.2990    0.0000 C   0  0  0  0  0  0  0  0  0  0  0  0
   -0.7500   -1.2990    0.0000 C   0  0  0  0  0  0  0  0  0  0  0  0
   -1.5000    0.0000    0.0000 C   0  0  0  0  0  0  0  0  0  0  0  0
   -0.7500    1.2990    0.0000 C   0  0  0  0  0  0  0  0  0  0  0  0
    0.7500    1.2990    0.0000 C   0  0  0  0  0  0  0  0  0  0  0  0
  1  2  1  0
  2  3  1  0
  3  4  1  0
  3  5  1  0
  5  6  2  0
  6  7  1  0
  7  8  2  0
  8  9  1  0
  9 10  2  0
 10  5  1  0
M  END
>  <Title>  (387) 
idAAMYgen14

$$$$

     RDKit          2D

 37 41  0  0  0  0  0  0  0  0999 V2000
   -3.0000   -2.5981    0.0000 C   0  0  0  0  0  0  0  0  0  0  0  0
   -1.5000   -2.5981    0.0000 C   0  0  0  0  0  0  0  0  0  0  0  0
   -0.7500   -3.8971    0.0000 C   0  0  0  0  0  0  0  0  0  0  0  0
    0.7500   -3.8971    0.0000 C   0  0  0  0  0  0  0  0  0  0  0  0
    1.5000   -2.5981    0.0000 C   0  0  0  0  0  0  0  0  0  0  0  0
    3.0000   -2.5981    0.0000 C   0  0  0  0  0  0  0  0  0  0  0  0
    3.7500   -1.2990    0.0000 O   0  0  0  0  0  0  0  0  0  0  0  0
    3.7500   -3.8971    0.0000 N   0  0  0  0  0  0  0  0  0  0  0  0
    5.2500   -3.8971    0.0000 C   0  0  0  0  0  0  0  0  0  0  0  0
    6.1317   -2.6836    0.0000 N   0  0  0  0  0  0  0  0  0  0  0  0
    7.5583   -3.1471    0.0000 N   0  0  0  0  0  0  0  0  0  0  0  0
    7.5583   -4.6471    0.0000 N   0  0  0  0  0  0  0  0  0  0  0  0
    6.1317   -5.1106    0.0000 N   0  0  0  0  0  0  0  0  0  0  0  0
    5.6682   -6.5372    0.0000 C   0  0  0  0  0  0  0  0  0  0  0  0
    6.5498   -7.7508    0.0000 C   0  0  0  0  0  0  0  0  0  0  0  0
    5.6682   -8.9643    0.0000 C   0  0  0  0  0  0  0  0  0  0  0  0
    4.2416   -8.5008    0.0000 C   0  0  0  0  0  0  0  0  0  0  0  0
    3.0280   -9.3824    0.0000 C   0  0  0  0  0  0  0  0  0  0  0  0
    3.1848  -10.8742    0.0000 O   0  0  0  0  0  0  0  0  0  0  0  0
    1.6577   -8.7723    0.0000 N   0  0  0  0  0  0  0  0  0  0  0  0
    0.4442   -9.6540    0.0000 C   0  0  0  0  0  0  0  0  0  0  0  0
   -0.9261   -9.0439    0.0000 N   0  0  0  0  0  0  0  0  0  0  0  0
   -2.1396   -9.9256    0.0000 N   0  0  0  0  0  0  0  0  0  0  0  0
   -1.9829  -11.4174    0.0000 N   0  0  0  0  0  0  0  0  0  0  0  0
   -0.6125  -12.0275    0.0000 N   0  0  0  0  0  0  0  0  0  0  0  0
    0.6010  -11.1458    0.0000 N   0  0  0  0  0  0  0  0  0  0  0  0
    4.2416   -7.0008    0.0000 C   0  0  0  0  0  0  0  0  0  0  0  0
    3.0280   -6.1191    0.0000 C   0  0  0  0  0  0  0  0  0  0  0  0
    1.6577   -6.7292    0.0000 O   0  0  0  0  0  0  0  0  0  0  0  0
    0.7500   -1.2990    0.0000 C   0  0  0  0  0  0  0  0  0  0  0  0
    1.5000    0.0000    0.0000 C   0  0  0  0  0  0  0  0  0  0  0  0
    0.7500    1.2990    0.0000 C   0  0  0  0  0  0  0  0  0  0  0  0
   -0.7500    1.2990    0.0000 C   0  0  0  0  0  0  0  0  0  0  0  0
   -1.5000    2.5981    0.0000 C   0  0  0  0  0  0  0  0  0  0  0  0
   -0.7500    3.8971    0.0000 O   0  0  0  0  0  0  0  0  0  0  0  0
   -1.5000    0.0000    0.0000 C   0  0  0  0  0  0  0  0  0  0  0  0
   -0.7500   -1.2990    0.0000 C   0  0  0  0  0  0  0  0  0  0  0  0
  1  2  1  0
  2  3  2  0
  3  4  1  0
  4  5  2  0
  5  6  1  0
  6  7  2  0
  6  8  1  0
  8  9  1  0
  9 10  2  0
 10 11  1  0
 11 12  2  0
 12 13  1  0
 13 14  1  0
 14 15  2  0
 15 16  1  0
 16 17  2  0
 17 18  1  0
 18 19  2  0
 18 20  1  0
 20 21  1  0
 21 22  2  0
 22 23  1  0
 23 24  2  0
 24 25  1  0
 25 26  2  0
 17 27  1  0
 27 28  1  0
 28 29  1  0
  5 30  1  0
 30 31  2  0
 31 32  1  0
 32 33  2  0
 33 34  1  0
 34 35  1  0
 33 36  1  0
 36 37  2  0
 37  2  1  0
 13  9  1  0
 27 14  1  0
 37 30  1  0
 26 21  1  0
M  END
>  <Title>  (388) 
idAAMZgen14

$$$$

     RDKit          2D

 14 15  0  0  0  0  0  0  0  0999 V2000
    3.0000    0.0000    0.0000 C   0  0  0  0  0  0  0  0  0  0  0  0
    1.5000    0.0000    0.0000 C   0  0  0  0  0  0  0  0  0  0  0  0
    0.7500   -1.2990    0.0000 N   0  0  0  0  0  0  0  0  0  0  0  0
   -0.7500   -1.2990    0.0000 C   0  0  0  0  0  0  0  0  0  0  0  0
   -1.5000   -2.5981    0.0000 C   0  0  0  0  0  0  0  0  0  0  0  0
   -3.0000   -2.5981    0.0000 C   0  0  0  0  0  0  0  0  0  0  0  0
   -3.7500   -1.2990    0.0000 C   0  0  0  0  0  0  0  0  0  0  0  0
   -5.2500   -1.2990    0.0000 C   0  0  0  0  0  0  0  0  0  0  0  0
   -6.0000   -2.5981    0.0000 C   0  0  0  0  0  0  0  0  0  0  0  0
   -5.2500   -3.8971    0.0000 N   0  0  0  0  0  0  0  0  0  0  0  0
   -3.7500   -3.8971    0.0000 C   0  0  0  0  0  0  0  0  0  0  0  0
   -1.5000    0.0000    0.0000 C   0  0  0  0  0  0  0  0  0  0  0  0
   -0.7500    1.2990    0.0000 C   0  0  0  0  0  0  0  0  0  0  0  0
    0.7500    1.2990    0.0000 C   0  0  0  0  0  0  0  0  0  0  0  0
  1  2  1  0
  2  3  2  0
  3  4  1  0
  4  5  1  0
  5  6  1  0
  6  7  2  0
  7  8  1  0
  8  9  2  0
  9 10  1  0
 10 11  2  0
  4 12  1  0
 12 13  1  0
 13 14  2  0
 14  2  1  0
 11  6  1  0
M  END
>  <Title>  (389) 
idAANAgen14

$$$$

     RDKit          2D

 41 45  0  0  0  0  0  0  0  0999 V2000
   -8.2500   -6.4952    0.0000 C   0  0  0  0  0  0  0  0  0  0  0  0
   -7.5000   -5.1962    0.0000 C   0  0  0  0  0  0  0  0  0  0  0  0
   -8.2500   -3.8971    0.0000 C   0  0  0  0  0  0  0  0  0  0  0  0
   -6.0000   -5.1962    0.0000 N   0  0  0  0  0  0  0  0  0  0  0  0
   -5.2500   -3.8971    0.0000 C   0  0  0  0  0  0  0  0  0  0  0  0
   -6.0000   -2.5981    0.0000 O   0  0  0  0  0  0  0  0  0  0  0  0
   -3.7500   -3.8971    0.0000 N   0  0  0  0  0  0  0  0  0  0  0  0
   -3.0000   -2.5981    0.0000 C   0  0  0  0  0  0  0  0  0  0  0  0
   -1.5000   -2.5981    0.0000 C   0  0  0  0  0  0  0  0  0  0  0  0
   -0.7500   -3.8971    0.0000 C   0  0  0  0  0  0  0  0  0  0  0  0
    0.7500   -3.8971    0.0000 C   0  0  0  0  0  0  0  0  0  0  0  0
    1.5000   -2.5981    0.0000 C   0  0  0  0  0  0  0  0  0  0  0  0
    3.0000   -2.5981    0.0000 C   0  0  0  0  0  0  0  0  0  0  0  0
    3.7500   -1.2990    0.0000 O   0  0  0  0  0  0  0  0  0  0  0  0
    3.7500   -3.8971    0.0000 N   0  0  0  0  0  0  0  0  0  0  0  0
    5.2500   -3.8971    0.0000 C   0  0  0  0  0  0  0  0  0  0  0  0
    6.1317   -2.6836    0.0000 N   0  0  0  0  0  0  0  0  0  0  0  0
    7.5583   -3.1471    0.0000 N   0  0  0  0  0  0  0  0  0  0  0  0
    7.5583   -4.6471    0.0000 N   0  0  0  0  0  0  0  0  0  0  0  0
    6.1317   -5.1106    0.0000 N   0  0  0  0  0  0  0  0  0  0  0  0
    5.6682   -6.5372    0.0000 N   0  0  0  0  0  0  0  0  0  0  0  0
    6.5498   -7.7508    0.0000 C   0  0  0  0  0  0  0  0  0  0  0  0
    5.6682   -8.9643    0.0000 C   0  0  0  0  0  0  0  0  0  0  0  0
    4.2416   -8.5008    0.0000 N   0  0  0  0  0  0  0  0  0  0  0  0
    3.0280   -9.3824    0.0000 C   0  0  0  0  0  0  0  0  0  0  0  0
    3.1848  -10.8742    0.0000 O   0  0  0  0  0  0  0  0  0  0  0  0
    1.6577   -8.7723    0.0000 N   0  0  0  0  0  0  0  0  0  0  0  0
    0.4442   -9.6540    0.0000 C   0  0  0  0  0  0  0  0  0  0  0  0
   -0.9261   -9.0439    0.0000 N   0  0  0  0  0  0  0  0  0  0  0  0
   -2.1396   -9.9256    0.0000 N   0  0  0  0  0  0  0  0  0  0  0  0
   -1.9829  -11.4174    0.0000 N   0  0  0  0  0  0  0  0  0  0  0  0
   -0.6125  -12.0275    0.0000 N   0  0  0  0  0  0  0  0  0  0  0  0
    0.6010  -11.1458    0.0000 N   0  0  0  0  0  0  0  0  0  0  0  0
    4.2416   -7.0008    0.0000 C   0  0  0  0  0  0  0  0  0  0  0  0
    3.0280   -6.1191    0.0000 O   0  0  0  0  0  0  0  0  0  0  0  0
    0.7500   -1.2990    0.0000 C   0  0  0  0  0  0  0  0  0  0  0  0
    1.5000    0.0000    0.0000 C   0  0  0  0  0  0  0  0  0  0  0  0
    0.7500    1.2990    0.0000 C   0  0  0  0  0  0  0  0  0  0  0  0
   -0.7500    1.2990    0.0000 C   0  0  0  0  0  0  0  0  0  0  0  0
   -1.5000    0.0000    0.0000 C   0  0  0  0  0  0  0  0  0  0  0  0
   -0.7500   -1.2990    0.0000 C   0  0  0  0  0  0  0  0  0  0  0  0
  1  2  1  0
  2  3  1  0
  2  4  1  0
  4  5  1  0
  5  6  2  0
  5  7  1  0
  7  8  1  0
  8  9  1  0
  9 10  2  0
 10 11  1  0
 11 12  2  0
 12 13  1  0
 13 14  2  0
 13 15  1  0
 15 16  1  0
 16 17  2  0
 17 18  1  0
 18 19  2  0
 19 20  1  0
 20 21  1  0
 21 22  1  0
 22 23  1  0
 23 24  1  0
 24 25  1  0
 25 26  2  0
 25 27  1  0
 27 28  1  0
 28 29  2  0
 29 30  1  0
 30 31  2  0
 31 32  1  0
 32 33  2  0
 24 34  1  0
 34 35  2  0
 12 36  1  0
 36 37  2  0
 37 38  1  0
 38 39  2  0
 39 40  1  0
 40 41  2  0
 41  9  1  0
 20 16  1  0
 34 21  1  0
 41 36  1  0
 33 28  1  0
M  END
>  <Title>  (390) 
idAANBgen14

$$$$

     RDKit          2D

  8  8  0  0  0  0  0  0  0  0999 V2000
    4.5000    0.0000    0.0000 C   0  0  0  0  0  0  0  0  0  0  0  0
    3.0000    0.0000    0.0000 C   0  0  0  0  0  0  0  0  0  0  0  0
    1.5000    0.0000    0.0000 C   0  0  0  0  0  0  0  0  0  0  0  0
    0.7500   -1.2990    0.0000 C   0  0  0  0  0  0  0  0  0  0  0  0
   -0.7500   -1.2990    0.0000 C   0  0  0  0  0  0  0  0  0  0  0  0
   -1.5000    0.0000    0.0000 C   0  0  0  0  0  0  0  0  0  0  0  0
   -0.7500    1.2990    0.0000 C   0  0  0  0  0  0  0  0  0  0  0  0
    0.7500    1.2990    0.0000 C   0  0  0  0  0  0  0  0  0  0  0  0
  1  2  3  0
  2  3  1  0
  3  4  1  0
  4  5  2  0
  5  6  1  0
  6  7  2  0
  7  8  1  0
  8  3  1  0
M  END
>  <Title>  (391) 
idAANCgen14

$$$$

     RDKit          2D

 13 13  0  0  0  0  0  0  0  0999 V2000
    8.2500   -3.8971    0.0000 C   0  0  0  0  0  0  0  0  0  0  0  0
    7.5000   -2.5981    0.0000 C   0  0  0  0  0  0  0  0  0  0  0  0
    6.0000   -2.5981    0.0000 C   0  0  0  0  0  0  0  0  0  0  0  0
    5.2500   -1.2990    0.0000 C   0  0  0  0  0  0  0  0  0  0  0  0
    6.0000    0.0000    0.0000 O   0  0  0  0  0  0  0  0  0  0  0  0
    3.7500   -1.2990    0.0000 N   0  0  0  0  0  0  0  0  0  0  0  0
    3.0000    0.0000    0.0000 C   0  0  0  0  0  0  0  0  0  0  0  0
    1.5000    0.0000    0.0000 C   0  0  0  0  0  0  0  0  0  0  0  0
    0.7500   -1.2990    0.0000 C   0  0  0  0  0  0  0  0  0  0  0  0
   -0.7500   -1.2990    0.0000 C   0  0  0  0  0  0  0  0  0  0  0  0
   -1.5000    0.0000    0.0000 C   0  0  0  0  0  0  0  0  0  0  0  0
   -0.7500    1.2990    0.0000 N   0  0  0  0  0  0  0  0  0  0  0  0
    0.7500    1.2990    0.0000 C   0  0  0  0  0  0  0  0  0  0  0  0
  1  2  1  0
  2  3  1  0
  3  4  1  0
  4  5  2  0
  4  6  1  0
  6  7  1  0
  7  8  1  0
  8  9  2  0
  9 10  1  0
 10 11  2  0
 11 12  1  0
 12 13  2  0
 13  8  1  0
M  END
>  <Title>  (392) 
idAANDgen14

$$$$

     RDKit          2D

 14 15  0  0  0  0  0  0  0  0999 V2000
    3.2286   -0.0000    0.0000 C   0  0  0  0  0  0  0  0  0  0  0  0
    1.7286    0.0000    0.0000 C   0  0  0  0  0  0  0  0  0  0  0  0
    1.0777    1.3515    0.0000 C   0  0  0  0  0  0  0  0  0  0  0  0
   -0.3846    1.6852    0.0000 C   0  0  0  0  0  0  0  0  0  0  0  0
   -1.5574    0.7500    0.0000 C   0  0  0  0  0  0  0  0  0  0  0  0
   -2.9088    1.4008    0.0000 N   0  0  0  0  0  0  0  0  0  0  0  0
   -3.0209    2.8966    0.0000 C   0  0  0  0  0  0  0  0  0  0  0  0
   -4.3724    3.5475    0.0000 C   0  0  0  0  0  0  0  0  0  0  0  0
   -5.6118    2.7025    0.0000 N   0  0  0  0  0  0  0  0  0  0  0  0
   -5.4997    1.2067    0.0000 N   0  0  0  0  0  0  0  0  0  0  0  0
   -4.1482    0.5558    0.0000 N   0  0  0  0  0  0  0  0  0  0  0  0
   -1.5574   -0.7500    0.0000 C   0  0  0  0  0  0  0  0  0  0  0  0
   -0.3846   -1.6852    0.0000 C   0  0  0  0  0  0  0  0  0  0  0  0
    1.0777   -1.3515    0.0000 C   0  0  0  0  0  0  0  0  0  0  0  0
  1  2  1  0
  2  3  2  0
  3  4  1  0
  4  5  2  0
  5  6  1  0
  6  7  1  0
  7  8  1  0
  8  9  2  0
  9 10  1  0
 10 11  2  0
  5 12  1  0
 12 13  1  0
 13 14  1  0
 14  2  1  0
 11  6  1  0
M  END
>  <Title>  (393) 
idAANEgen14

$$$$

     RDKit          2D

  8  7  0  0  0  0  0  0  0  0999 V2000
    0.0000    0.0000    0.0000 C   0  0  0  0  0  0  0  0  0  0  0  0
    1.2990    0.7500    0.0000 C   0  0  0  0  0  0  0  0  0  0  0  0
    2.5981   -0.0000    0.0000 C   0  0  0  0  0  0  0  0  0  0  0  0
    3.8971    0.7500    0.0000 C   0  0  0  0  0  0  0  0  0  0  0  0
    2.5981   -1.5000    0.0000 N   0  0  0  0  0  0  0  0  0  0  0  0
    3.8971   -2.2500    0.0000 C   0  0  0  0  0  0  0  0  0  0  0  0
    3.8971   -3.7500    0.0000 C   0  0  0  0  0  0  0  0  0  0  0  0
    5.1962   -1.5000    0.0000 C   0  0  0  0  0  0  0  0  0  0  0  0
  1  2  1  0
  2  3  1  0
  3  4  1  0
  3  5  1  0
  5  6  1  0
  6  7  1  0
  6  8  1  0
M  END
>  <Title>  (394) 
idAANFgen14

$$$$

     RDKit          2D

  9  8  0  0  0  0  0  0  0  0999 V2000
    0.0000    0.0000    0.0000 C   0  0  0  0  0  0  0  0  0  0  0  0
    1.2990    0.7500    0.0000 C   0  0  0  0  0  0  0  0  0  0  0  0
    2.5981   -0.0000    0.0000 C   0  0  0  0  0  0  0  0  0  0  0  0
    3.8971    0.7500    0.0000 C   0  0  0  0  0  0  0  0  0  0  0  0
    5.1962   -0.0000    0.0000 C   0  0  0  0  0  0  0  0  0  0  0  0
    6.4952    0.7500    0.0000 C   0  0  0  0  0  0  0  0  0  0  0  0
    7.7942   -0.0000    0.0000 C   0  0  0  0  0  0  0  0  0  0  0  0
    9.0933    0.7500    0.0000 C   0  0  0  0  0  0  0  0  0  0  0  0
   10.3923   -0.0000    0.0000 C   0  0  0  0  0  0  0  0  0  0  0  0
  1  2  1  0
  2  3  1  0
  3  4  1  0
  4  5  1  0
  5  6  1  0
  6  7  1  0
  7  8  1  0
  8  9  1  0
M  END
>  <Title>  (395) 
idAANGgen14

$$$$

     RDKit          2D

 17 17  0  0  0  0  0  0  0  0999 V2000
    7.5000   -2.5981    0.0000 C   0  0  0  0  0  0  0  0  0  0  0  0
    6.0000   -2.5981    0.0000 C   0  0  0  0  0  0  0  0  0  0  0  0
    5.2500   -1.2990    0.0000 N   0  0  0  0  0  0  0  0  0  0  0  0
    3.7500   -1.2990    0.0000 C   0  0  0  0  0  0  0  0  0  0  0  0
    3.0000   -2.5981    0.0000 O   0  0  0  0  0  0  0  0  0  0  0  0
    3.0000    0.0000    0.0000 N   0  0  0  0  0  0  0  0  0  0  0  0
    1.5000    0.0000    0.0000 C   0  0  0  0  0  0  0  0  0  0  0  0
    0.7500   -1.2990    0.0000 C   0  0  0  0  0  0  0  0  0  0  0  0
   -0.7500   -1.2990    0.0000 C   0  0  0  0  0  0  0  0  0  0  0  0
   -1.5000    0.0000    0.0000 C   0  0  0  0  0  0  0  0  0  0  0  0
   -0.7500    1.2990    0.0000 C   0  0  0  0  0  0  0  0  0  0  0  0
    0.7500    1.2990    0.0000 N   0  0  0  0  0  0  0  0  0  0  0  0
    5.2500   -3.8971    0.0000 N   0  0  0  0  0  0  0  0  0  0  0  0
    6.0000   -5.1962    0.0000 C   0  0  0  0  0  0  0  0  0  0  0  0
    4.7010   -5.9462    0.0000 C   0  0  0  0  0  0  0  0  0  0  0  0
    7.2990   -4.4462    0.0000 C   0  0  0  0  0  0  0  0  0  0  0  0
    6.7500   -6.4952    0.0000 C   0  0  0  0  0  0  0  0  0  0  0  0
  1  2  1  0
  2  3  1  0
  3  4  1  0
  4  5  2  0
  4  6  1  0
  6  7  1  0
  7  8  2  0
  8  9  1  0
  9 10  1  0
 10 11  1  0
 11 12  2  0
  2 13  1  0
 13 14  1  0
 14 15  1  0
 14 16  1  0
 14 17  1  0
 12  7  1  0
M  END
>  <Title>  (396) 
idAANHgen14

$$$$

     RDKit          2D

 11 11  0  0  0  0  0  0  0  0999 V2000
    7.5000   -2.5981    0.0000 C   0  0  0  0  0  0  0  0  0  0  0  0
    6.0000   -2.5981    0.0000 C   0  0  0  0  0  0  0  0  0  0  0  0
    5.2500   -1.2990    0.0000 C   0  0  0  0  0  0  0  0  0  0  0  0
    3.7500   -1.2990    0.0000 N   0  0  0  0  0  0  0  0  0  0  0  0
    3.0000    0.0000    0.0000 C   0  0  0  0  0  0  0  0  0  0  0  0
    1.5000    0.0000    0.0000 C   0  0  0  0  0  0  0  0  0  0  0  0
    0.7500   -1.2990    0.0000 C   0  0  0  0  0  0  0  0  0  0  0  0
   -0.7500   -1.2990    0.0000 S   0  0  0  0  0  0  0  0  0  0  0  0
   -1.5000    0.0000    0.0000 C   0  0  0  0  0  0  0  0  0  0  0  0
   -0.7500    1.2990    0.0000 C   0  0  0  0  0  0  0  0  0  0  0  0
    0.7500    1.2990    0.0000 C   0  0  0  0  0  0  0  0  0  0  0  0
  1  2  1  0
  2  3  2  3
  3  4  1  0
  4  5  1  0
  5  6  1  0
  6  7  2  0
  7  8  1  0
  8  9  1  0
  9 10  1  0
 10 11  2  0
 11  6  1  0
M  END
>  <Title>  (397) 
idAANIgen14

$$$$

     RDKit          2D

 11 11  0  0  0  0  0  0  0  0999 V2000
    7.5000   -2.5981    0.0000 C   0  0  0  0  0  0  0  0  0  0  0  0
    6.0000   -2.5981    0.0000 C   0  0  0  0  0  0  0  0  0  0  0  0
    5.2500   -1.2990    0.0000 C   0  0  0  0  0  0  0  0  0  0  0  0
    3.7500   -1.2990    0.0000 N   0  0  0  0  0  0  0  0  0  0  0  0
    3.0000    0.0000    0.0000 C   0  0  0  0  0  0  0  0  0  0  0  0
    1.5000    0.0000    0.0000 C   0  0  0  0  0  0  0  0  0  0  0  0
    0.7500   -1.2990    0.0000 C   0  0  0  0  0  0  0  0  0  0  0  0
   -0.7500   -1.2990    0.0000 S   0  0  0  0  0  0  0  0  0  0  0  0
   -1.5000    0.0000    0.0000 C   0  0  0  0  0  0  0  0  0  0  0  0
   -0.7500    1.2990    0.0000 C   0  0  0  0  0  0  0  0  0  0  0  0
    0.7500    1.2990    0.0000 N   0  0  0  0  0  0  0  0  0  0  0  0
  1  2  1  0
  2  3  2  3
  3  4  1  0
  4  5  1  0
  5  6  1  0
  6  7  2  0
  7  8  1  0
  8  9  1  0
  9 10  1  0
 10 11  2  0
 11  6  1  0
M  END
>  <Title>  (398) 
idAANJgen14

$$$$

     RDKit          2D

 35 39  0  0  0  0  0  0  0  0999 V2000
   -3.1476   -2.1380    0.0000 C   0  0  0  0  0  0  0  0  0  0  0  0
   -1.6852   -2.4718    0.0000 C   0  0  0  0  0  0  0  0  0  0  0  0
   -1.3515   -3.9342    0.0000 C   0  0  0  0  0  0  0  0  0  0  0  0
   -0.0000   -4.5850    0.0000 C   0  0  0  0  0  0  0  0  0  0  0  0
    1.3515   -3.9342    0.0000 C   0  0  0  0  0  0  0  0  0  0  0  0
    1.6852   -2.4718    0.0000 C   0  0  0  0  0  0  0  0  0  0  0  0
    3.1476   -2.1380    0.0000 C   0  0  0  0  0  0  0  0  0  0  0  0
    3.5898   -0.7046    0.0000 O   0  0  0  0  0  0  0  0  0  0  0  0
    4.1679   -3.2376    0.0000 N   0  0  0  0  0  0  0  0  0  0  0  0
    5.6303   -2.9038    0.0000 C   0  0  0  0  0  0  0  0  0  0  0  0
    6.2198   -1.5245    0.0000 N   0  0  0  0  0  0  0  0  0  0  0  0
    7.7138   -1.6590    0.0000 N   0  0  0  0  0  0  0  0  0  0  0  0
    8.0476   -3.1214    0.0000 N   0  0  0  0  0  0  0  0  0  0  0  0
    6.7599   -3.8907    0.0000 N   0  0  0  0  0  0  0  0  0  0  0  0
    6.6254   -5.3847    0.0000 N   0  0  0  0  0  0  0  0  0  0  0  0
    7.7550   -6.3716    0.0000 C   0  0  0  0  0  0  0  0  0  0  0  0
    7.1655   -7.7509    0.0000 C   0  0  0  0  0  0  0  0  0  0  0  0
    5.6715   -7.6164    0.0000 N   0  0  0  0  0  0  0  0  0  0  0  0
    4.6846   -8.7460    0.0000 C   0  0  0  0  0  0  0  0  0  0  0  0
    5.1694  -10.1655    0.0000 O   0  0  0  0  0  0  0  0  0  0  0  0
    3.2129   -8.4561    0.0000 N   0  0  0  0  0  0  0  0  0  0  0  0
    2.2260   -9.5857    0.0000 C   0  0  0  0  0  0  0  0  0  0  0  0
    0.7543   -9.2959    0.0000 N   0  0  0  0  0  0  0  0  0  0  0  0
   -0.2326  -10.4255    0.0000 N   0  0  0  0  0  0  0  0  0  0  0  0
    0.2522  -11.8450    0.0000 N   0  0  0  0  0  0  0  0  0  0  0  0
    1.7239  -12.1348    0.0000 N   0  0  0  0  0  0  0  0  0  0  0  0
    2.7108  -11.0052    0.0000 N   0  0  0  0  0  0  0  0  0  0  0  0
    5.3378   -6.1540    0.0000 C   0  0  0  0  0  0  0  0  0  0  0  0
    3.9585   -5.5645    0.0000 O   0  0  0  0  0  0  0  0  0  0  0  0
    0.7500   -1.2990    0.0000 C   0  0  0  0  0  0  0  0  0  0  0  0
    1.5000    0.0000    0.0000 C   0  0  0  0  0  0  0  0  0  0  0  0
    0.7500    1.2990    0.0000 C   0  0  0  0  0  0  0  0  0  0  0  0
   -0.7500    1.2990    0.0000 C   0  0  0  0  0  0  0  0  0  0  0  0
   -1.5000    0.0000    0.0000 C   0  0  0  0  0  0  0  0  0  0  0  0
   -0.7500   -1.2990    0.0000 C   0  0  0  0  0  0  0  0  0  0  0  0
  1  2  1  0
  2  3  1  0
  3  4  2  0
  4  5  1  0
  5  6  1  0
  6  7  1  0
  7  8  2  0
  7  9  1  0
  9 10  1  0
 10 11  2  0
 11 12  1  0
 12 13  2  0
 13 14  1  0
 14 15  1  0
 15 16  1  0
 16 17  1  0
 17 18  1  0
 18 19  1  0
 19 20  2  0
 19 21  1  0
 21 22  1  0
 22 23  2  0
 23 24  1  0
 24 25  2  0
 25 26  1  0
 26 27  2  0
 18 28  1  0
 28 29  2  0
  6 30  1  0
 30 31  2  0
 31 32  1  0
 32 33  2  0
 33 34  1  0
 34 35  2  0
 35  2  1  0
 14 10  1  0
 28 15  1  0
 35 30  1  0
 27 22  1  0
M  END
>  <Title>  (399) 
idAANKgen14

$$$$

     RDKit          2D

 11 11  0  0  0  0  0  0  0  0999 V2000
    6.0000   -2.5981    0.0000 C   0  0  0  0  0  0  0  0  0  0  0  0
    5.2500   -1.2990    0.0000 C   0  0  0  0  0  0  0  0  0  0  0  0
    3.7500   -1.2990    0.0000 C   0  0  0  0  0  0  0  0  0  0  0  0
    3.0000   -2.5981    0.0000 O   0  0  0  0  0  0  0  0  0  0  0  0
    3.0000    0.0000    0.0000 N   0  0  0  0  0  0  0  0  0  0  0  0
    1.5000    0.0000    0.0000 C   0  0  0  0  0  0  0  0  0  0  0  0
    0.7500   -1.2990    0.0000 C   0  0  0  0  0  0  0  0  0  0  0  0
   -0.7500   -1.2990    0.0000 C   0  0  0  0  0  0  0  0  0  0  0  0
   -1.5000    0.0000    0.0000 C   0  0  0  0  0  0  0  0  0  0  0  0
   -0.7500    1.2990    0.0000 C   0  0  0  0  0  0  0  0  0  0  0  0
    0.7500    1.2990    0.0000 C   0  0  0  0  0  0  0  0  0  0  0  0
  1  2  1  0
  2  3  1  0
  3  4  2  0
  3  5  1  0
  5  6  1  0
  6  7  2  0
  7  8  1  0
  8  9  2  0
  9 10  1  0
 10 11  2  0
 11  6  1  0
M  END
>  <Title>  (400) 
idAANLgen14

$$$$

     RDKit          2D

 10 10  0  0  0  0  0  0  0  0999 V2000
    6.0000   -2.5981    0.0000 C   0  0  0  0  0  0  0  0  0  0  0  0
    5.2500   -1.2990    0.0000 C   0  0  0  0  0  0  0  0  0  0  0  0
    3.7500   -1.2990    0.0000 C   0  0  0  0  0  0  0  0  0  0  0  0
    3.0000    0.0000    0.0000 C   0  0  0  0  0  0  0  0  0  0  0  0
    1.5000    0.0000    0.0000 C   0  0  0  0  0  0  0  0  0  0  0  0
    0.7500   -1.2990    0.0000 C   0  0  0  0  0  0  0  0  0  0  0  0
   -0.7500   -1.2990    0.0000 C   0  0  0  0  0  0  0  0  0  0  0  0
   -1.5000    0.0000    0.0000 C   0  0  0  0  0  0  0  0  0  0  0  0
   -0.7500    1.2990    0.0000 N   0  0  0  0  0  0  0  0  0  0  0  0
    0.7500    1.2990    0.0000 C   0  0  0  0  0  0  0  0  0  0  0  0
  1  2  1  0
  2  3  2  3
  3  4  1  0
  4  5  1  0
  5  6  2  0
  6  7  1  0
  7  8  2  0
  8  9  1  0
  9 10  2  0
 10  5  1  0
M  END
>  <Title>  (401) 
idAANMgen14

$$$$

     RDKit          2D

 12 11  0  0  0  0  0  0  0  0999 V2000
    0.0000    0.0000    0.0000 C   0  0  0  0  0  0  0  0  0  0  0  0
    1.2990    0.7500    0.0000 C   0  0  0  0  0  0  0  0  0  0  0  0
    2.5981   -0.0000    0.0000 C   0  0  0  0  0  0  0  0  0  0  0  0
    3.8971    0.7500    0.0000 C   0  0  0  0  0  0  0  0  0  0  0  0
    5.1962   -0.0000    0.0000 C   0  0  0  0  0  0  0  0  0  0  0  0
    6.4952    0.7500    0.0000 C   0  0  0  0  0  0  0  0  0  0  0  0
    7.7942   -0.0000    0.0000 N   0  0  0  0  0  0  0  0  0  0  0  0
    9.0933    0.7500    0.0000 C   0  0  0  0  0  0  0  0  0  0  0  0
    6.4952    2.2500    0.0000 N   0  0  0  0  0  0  0  0  0  0  0  0
    7.7942    3.0000    0.0000 C   0  0  0  0  0  0  0  0  0  0  0  0
    7.7942    4.5000    0.0000 C   0  0  0  0  0  0  0  0  0  0  0  0
    9.0933    2.2500    0.0000 N   0  0  0  0  0  0  0  0  0  0  0  0
  1  2  1  0
  2  3  1  0
  3  4  2  3
  4  5  1  0
  5  6  1  0
  6  7  1  0
  7  8  1  0
  6  9  1  0
  9 10  1  0
 10 11  1  0
 10 12  1  0
M  END
>  <Title>  (402) 
idAANNgen14

$$$$

     RDKit          2D

  7  6  0  0  0  0  0  0  0  0999 V2000
    0.0000    0.0000    0.0000 C   0  0  0  0  0  0  0  0  0  0  0  0
    1.2990    0.7500    0.0000 C   0  0  0  0  0  0  0  0  0  0  0  0
    2.5981   -0.0000    0.0000 C   0  0  0  0  0  0  0  0  0  0  0  0
    3.8971    0.7500    0.0000 C   0  0  0  0  0  0  0  0  0  0  0  0
    5.1962   -0.0000    0.0000 C   0  0  0  0  0  0  0  0  0  0  0  0
    3.8971    2.2500    0.0000 N   0  0  0  0  0  0  0  0  0  0  0  0
    5.1962    3.0000    0.0000 C   0  0  0  0  0  0  0  0  0  0  0  0
  1  2  1  0
  2  3  1  0
  3  4  1  0
  4  5  1  0
  4  6  1  0
  6  7  1  0
M  END
>  <Title>  (403) 
idAANOgen14

$$$$

     RDKit          2D

 13 13  0  0  0  0  0  0  0  0999 V2000
    9.7500   -3.8971    0.0000 C   0  0  0  0  0  0  0  0  0  0  0  0
    8.2500   -3.8971    0.0000 C   0  0  0  0  0  0  0  0  0  0  0  0
    7.5000   -2.5981    0.0000 C   0  0  0  0  0  0  0  0  0  0  0  0
    6.0000   -2.5981    0.0000 C   0  0  0  0  0  0  0  0  0  0  0  0
    5.2500   -1.2990    0.0000 C   0  0  0  0  0  0  0  0  0  0  0  0
    3.7500   -1.2990    0.0000 C   0  0  0  0  0  0  0  0  0  0  0  0
    3.0000    0.0000    0.0000 C   0  0  0  0  0  0  0  0  0  0  0  0
    1.5000    0.0000    0.0000 C   0  0  0  0  0  0  0  0  0  0  0  0
    0.7500   -1.2990    0.0000 C   0  0  0  0  0  0  0  0  0  0  0  0
   -0.7500   -1.2990    0.0000 C   0  0  0  0  0  0  0  0  0  0  0  0
   -1.5000    0.0000    0.0000 C   0  0  0  0  0  0  0  0  0  0  0  0
   -0.7500    1.2990    0.0000 N   0  0  0  0  0  0  0  0  0  0  0  0
    0.7500    1.2990    0.0000 C   0  0  0  0  0  0  0  0  0  0  0  0
  1  2  1  0
  2  3  1  0
  3  4  1  0
  4  5  1  0
  5  6  1  0
  6  7  1  0
  7  8  1  0
  8  9  2  0
  9 10  1  0
 10 11  2  0
 11 12  1  0
 12 13  2  0
 13  8  1  0
M  END
>  <Title>  (404) 
idAANPgen14

$$$$

     RDKit          2D

106107  0  0  0  0  0  0  0  0999 V2000
   -2.1548   -1.0881    0.0000 C   0  0  0  0  0  0  0  0  0  0  0  0
   -2.4847    0.3752    0.0000 C   0  0  0  0  0  0  0  0  0  0  0  0
   -3.9574    0.0905    0.0000 C   0  0  0  0  0  0  0  0  0  0  0  0
   -5.4449   -0.1030    0.0000 C   0  0  0  0  0  0  0  0  0  0  0  0
   -6.9415   -0.2046    0.0000 C   0  0  0  0  0  0  0  0  0  0  0  0
   -8.4414   -0.2138    0.0000 C   0  0  0  0  0  0  0  0  0  0  0  0
   -9.9391   -0.1307    0.0000 C   0  0  0  0  0  0  0  0  0  0  0  0
  -11.4289    0.0444    0.0000 C   0  0  0  0  0  0  0  0  0  0  0  0
  -12.9050    0.3110    0.0000 C   0  0  0  0  0  0  0  0  0  0  0  0
  -14.3619    0.6679    0.0000 C   0  0  0  0  0  0  0  0  0  0  0  0
  -15.7941    1.1138    0.0000 C   0  0  0  0  0  0  0  0  0  0  0  0
  -17.1961    1.6470    0.0000 C   0  0  0  0  0  0  0  0  0  0  0  0
  -18.5627    2.2656    0.0000 C   0  0  0  0  0  0  0  0  0  0  0  0
  -19.8885    2.9671    0.0000 C   0  0  0  0  0  0  0  0  0  0  0  0
  -21.1687    3.7488    0.0000 C   0  0  0  0  0  0  0  0  0  0  0  0
  -22.3983    4.6079    0.0000 C   0  0  0  0  0  0  0  0  0  0  0  0
  -23.5727    5.5411    0.0000 C   0  0  0  0  0  0  0  0  0  0  0  0
  -24.6874    6.5448    0.0000 C   0  0  0  0  0  0  0  0  0  0  0  0
  -25.7382    7.6152    0.0000 C   0  0  0  0  0  0  0  0  0  0  0  0
  -26.7211    8.7483    0.0000 C   0  0  0  0  0  0  0  0  0  0  0  0
  -27.6325    9.9397    0.0000 C   0  0  0  0  0  0  0  0  0  0  0  0
  -28.4687   11.1850    0.0000 C   0  0  0  0  0  0  0  0  0  0  0  0
  -29.2267   12.4794    0.0000 C   0  0  0  0  0  0  0  0  0  0  0  0
  -29.9035   13.8180    0.0000 C   0  0  0  0  0  0  0  0  0  0  0  0
  -30.4967   15.1957    0.0000 C   0  0  0  0  0  0  0  0  0  0  0  0
  -31.0040   16.6074    0.0000 C   0  0  0  0  0  0  0  0  0  0  0  0
  -31.4233   18.0475    0.0000 C   0  0  0  0  0  0  0  0  0  0  0  0
  -31.7532   19.5108    0.0000 C   0  0  0  0  0  0  0  0  0  0  0  0
  -31.9925   20.9916    0.0000 C   0  0  0  0  0  0  0  0  0  0  0  0
  -32.1401   22.4843    0.0000 C   0  0  0  0  0  0  0  0  0  0  0  0
  -32.1955   23.9833    0.0000 C   0  0  0  0  0  0  0  0  0  0  0  0
  -32.1585   25.4829    0.0000 C   0  0  0  0  0  0  0  0  0  0  0  0
  -32.0293   26.9773    0.0000 C   0  0  0  0  0  0  0  0  0  0  0  0
  -31.8084   28.4609    0.0000 C   0  0  0  0  0  0  0  0  0  0  0  0
  -31.4965   29.9281    0.0000 C   0  0  0  0  0  0  0  0  0  0  0  0
  -31.0949   31.3734    0.0000 C   0  0  0  0  0  0  0  0  0  0  0  0
  -30.6051   32.7912    0.0000 C   0  0  0  0  0  0  0  0  0  0  0  0
  -30.0289   34.1761    0.0000 C   0  0  0  0  0  0  0  0  0  0  0  0
  -29.3686   35.5229    0.0000 C   0  0  0  0  0  0  0  0  0  0  0  0
  -28.6266   36.8266    0.0000 C   0  0  0  0  0  0  0  0  0  0  0  0
  -27.8058   38.0820    0.0000 C   0  0  0  0  0  0  0  0  0  0  0  0
  -26.9093   39.2846    0.0000 C   0  0  0  0  0  0  0  0  0  0  0  0
  -25.9404   40.4297    0.0000 C   0  0  0  0  0  0  0  0  0  0  0  0
  -24.9028   41.5130    0.0000 C   0  0  0  0  0  0  0  0  0  0  0  0
  -23.8005   42.5303    0.0000 C   0  0  0  0  0  0  0  0  0  0  0  0
  -22.6377   43.4779    0.0000 C   0  0  0  0  0  0  0  0  0  0  0  0
  -21.4188   44.3521    0.0000 C   0  0  0  0  0  0  0  0  0  0  0  0
  -20.1484   45.1496    0.0000 C   0  0  0  0  0  0  0  0  0  0  0  0
  -18.8312   45.8674    0.0000 C   0  0  0  0  0  0  0  0  0  0  0  0
  -17.4724   46.5027    0.0000 C   0  0  0  0  0  0  0  0  0  0  0  0
  -16.0771   47.0531    0.0000 C   0  0  0  0  0  0  0  0  0  0  0  0
  -14.6505   47.5167    0.0000 C   0  0  0  0  0  0  0  0  0  0  0  0
  -13.1981   47.8915    0.0000 C   0  0  0  0  0  0  0  0  0  0  0  0
  -11.7254   48.1762    0.0000 C   0  0  0  0  0  0  0  0  0  0  0  0
  -10.2379   48.3697    0.0000 C   0  0  0  0  0  0  0  0  0  0  0  0
   -8.7413   48.4713    0.0000 C   0  0  0  0  0  0  0  0  0  0  0  0
   -7.2414   48.4805    0.0000 C   0  0  0  0  0  0  0  0  0  0  0  0
   -5.7437   48.3974    0.0000 C   0  0  0  0  0  0  0  0  0  0  0  0
   -4.2539   48.2222    0.0000 C   0  0  0  0  0  0  0  0  0  0  0  0
   -2.7778   47.9557    0.0000 C   0  0  0  0  0  0  0  0  0  0  0  0
   -1.3209   47.5988    0.0000 C   0  0  0  0  0  0  0  0  0  0  0  0
    0.1113   47.1529    0.0000 C   0  0  0  0  0  0  0  0  0  0  0  0
    1.5133   46.6196    0.0000 C   0  0  0  0  0  0  0  0  0  0  0  0
    2.8799   46.0011    0.0000 C   0  0  0  0  0  0  0  0  0  0  0  0
    4.2057   45.2996    0.0000 C   0  0  0  0  0  0  0  0  0  0  0  0
    5.4859   44.5178    0.0000 C   0  0  0  0  0  0  0  0  0  0  0  0
    6.7155   43.6587    0.0000 C   0  0  0  0  0  0  0  0  0  0  0  0
    7.8899   42.7256    0.0000 C   0  0  0  0  0  0  0  0  0  0  0  0
    9.0046   41.7219    0.0000 C   0  0  0  0  0  0  0  0  0  0  0  0
   10.0554   40.6515    0.0000 C   0  0  0  0  0  0  0  0  0  0  0  0
   11.0384   39.5184    0.0000 C   0  0  0  0  0  0  0  0  0  0  0  0
   11.9497   38.3269    0.0000 C   0  0  0  0  0  0  0  0  0  0  0  0
   12.7859   37.0817    0.0000 C   0  0  0  0  0  0  0  0  0  0  0  0
   13.5439   35.7873    0.0000 C   0  0  0  0  0  0  0  0  0  0  0  0
   14.2207   34.4487    0.0000 C   0  0  0  0  0  0  0  0  0  0  0  0
   14.8139   33.0709    0.0000 C   0  0  0  0  0  0  0  0  0  0  0  0
   15.3212   31.6593    0.0000 C   0  0  0  0  0  0  0  0  0  0  0  0
   15.7405   30.2191    0.0000 C   0  0  0  0  0  0  0  0  0  0  0  0
   16.0705   28.7559    0.0000 C   0  0  0  0  0  0  0  0  0  0  0  0
   16.3097   27.2751    0.0000 C   0  0  0  0  0  0  0  0  0  0  0  0
   16.4573   25.7823    0.0000 C   0  0  0  0  0  0  0  0  0  0  0  0
   16.5127   24.2834    0.0000 C   0  0  0  0  0  0  0  0  0  0  0  0
   16.4757   22.7838    0.0000 C   0  0  0  0  0  0  0  0  0  0  0  0
   16.3465   21.2894    0.0000 C   0  0  0  0  0  0  0  0  0  0  0  0
   16.1256   19.8058    0.0000 C   0  0  0  0  0  0  0  0  0  0  0  0
   15.8137   18.3385    0.0000 C   0  0  0  0  0  0  0  0  0  0  0  0
   15.4121   16.8933    0.0000 C   0  0  0  0  0  0  0  0  0  0  0  0
   14.9223   15.4755    0.0000 C   0  0  0  0  0  0  0  0  0  0  0  0
   14.3462   14.0906    0.0000 C   0  0  0  0  0  0  0  0  0  0  0  0
   13.6858   12.7437    0.0000 C   0  0  0  0  0  0  0  0  0  0  0  0
   12.9438   11.4401    0.0000 C   0  0  0  0  0  0  0  0  0  0  0  0
   12.1230   10.1846    0.0000 C   0  0  0  0  0  0  0  0  0  0  0  0
   11.2265    8.9821    0.0000 C   0  0  0  0  0  0  0  0  0  0  0  0
   10.2576    7.8370    0.0000 C   0  0  0  0  0  0  0  0  0  0  0  0
    9.2200    6.7537    0.0000 C   0  0  0  0  0  0  0  0  0  0  0  0
    8.1178    5.7363    0.0000 C   0  0  0  0  0  0  0  0  0  0  0  0
    6.9549    4.7888    0.0000 C   0  0  0  0  0  0  0  0  0  0  0  0
    5.7360    3.9146    0.0000 C   0  0  0  0  0  0  0  0  0  0  0  0
    4.4656    3.1171    0.0000 C   0  0  0  0  0  0  0  0  0  0  0  0
    3.1485    2.3993    0.0000 C   0  0  0  0  0  0  0  0  0  0  0  0
    1.7896    1.7640    0.0000 C   0  0  0  0  0  0  0  0  0  0  0  0
    0.3943    1.2135    0.0000 C   0  0  0  0  0  0  0  0  0  0  0  0
    1.2760    0.0000    0.0000 C   0  0  0  0  0  0  0  0  0  0  0  0
    0.3943   -1.2135    0.0000 C   0  0  0  0  0  0  0  0  0  0  0  0
   -1.0323   -0.7500    0.0000 C   0  0  0  0  0  0  0  0  0  0  0  0
   -1.0323    0.7500    0.0000 C   0  0  0  0  0  0  0  0  0  0  0  0
  1  2  1  0
  2  3  1  0
  3  4  1  0
  4  5  1  0
  5  6  1  0
  6  7  1  0
  7  8  1  0
  8  9  1  0
  9 10  1  0
 10 11  1  0
 11 12  1  0
 12 13  1  0
 13 14  1  0
 14 15  1  0
 15 16  1  0
 16 17  1  0
 17 18  1  0
 18 19  1  0
 19 20  1  0
 20 21  1  0
 21 22  1  0
 22 23  1  0
 23 24  1  0
 24 25  1  0
 25 26  1  0
 26 27  1  0
 27 28  1  0
 28 29  1  0
 29 30  1  0
 30 31  1  0
 31 32  1  0
 32 33  1  0
 33 34  1  0
 34 35  1  0
 35 36  1  0
 36 37  1  0
 37 38  1  0
 38 39  1  0
 39 40  1  0
 40 41  1  0
 41 42  1  0
 42 43  1  0
 43 44  1  0
 44 45  1  0
 45 46  1  0
 46 47  1  0
 47 48  1  0
 48 49  1  0
 49 50  1  0
 50 51  1  0
 51 52  1  0
 52 53  1  0
 53 54  1  0
 54 55  1  0
 55 56  1  0
 56 57  1  0
 57 58  1  0
 58 59  1  0
 59 60  1  0
 60 61  1  0
 61 62  1  0
 62 63  1  0
 63 64  1  0
 64 65  1  0
 65 66  1  0
 66 67  1  0
 67 68  1  0
 68 69  1  0
 69 70  1  0
 70 71  1  0
 71 72  1  0
 72 73  1  0
 73 74  1  0
 74 75  1  0
 75 76  1  0
 76 77  1  0
 77 78  1  0
 78 79  1  0
 79 80  1  0
 80 81  1  0
 81 82  1  0
 82 83  1  0
 83 84  1  0
 84 85  1  0
 85 86  1  0
 86 87  1  0
 87 88  1  0
 88 89  1  0
 89 90  1  0
 90 91  1  0
 91 92  1  0
 92 93  1  0
 93 94  1  0
 94 95  1  0
 95 96  1  0
 96 97  1  0
 97 98  1  0
 98 99  1  0
 99100  1  0
100101  1  0
101102  1  0
102103  1  0
103104  2  0
104105  1  0
105106  2  0
106  2  1  0
106102  1  0
M  END
>  <Title>  (405) 
idAANQgen14

$$$$

     RDKit          2D

 10 10  0  0  0  0  0  0  0  0999 V2000
    5.2500   -1.2990    0.0000 C   0  0  0  0  0  0  0  0  0  0  0  0
    3.7500   -1.2990    0.0000 C   0  0  0  0  0  0  0  0  0  0  0  0
    3.0000    0.0000    0.0000 C   0  0  0  0  0  0  0  0  0  0  0  0
    1.5000    0.0000    0.0000 C   0  0  0  0  0  0  0  0  0  0  0  0
    0.7500   -1.2990    0.0000 C   0  0  0  0  0  0  0  0  0  0  0  0
   -0.7500   -1.2990    0.0000 C   0  0  0  0  0  0  0  0  0  0  0  0
   -1.5000    0.0000    0.0000 C   0  0  0  0  0  0  0  0  0  0  0  0
   -3.0000    0.0000    0.0000 F   0  0  0  0  0  0  0  0  0  0  0  0
   -0.7500    1.2990    0.0000 N   0  0  0  0  0  0  0  0  0  0  0  0
    0.7500    1.2990    0.0000 C   0  0  0  0  0  0  0  0  0  0  0  0
  1  2  1  0
  2  3  1  0
  3  4  1  0
  4  5  2  0
  5  6  1  0
  6  7  2  0
  7  8  1  0
  7  9  1  0
  9 10  2  0
 10  4  1  0
M  END
>  <Title>  (406) 
idAANRgen14

$$$$

     RDKit          2D

  8  7  0  0  0  0  0  0  0  0999 V2000
    0.0000    0.0000    0.0000 C   0  0  0  0  0  0  0  0  0  0  0  0
    1.2990    0.7500    0.0000 C   0  0  0  0  0  0  0  0  0  0  0  0
    2.5981   -0.0000    0.0000 C   0  0  0  0  0  0  0  0  0  0  0  0
    3.8971    0.7500    0.0000 C   0  0  0  0  0  0  0  0  0  0  0  0
    5.1962   -0.0000    0.0000 C   0  0  0  0  0  0  0  0  0  0  0  0
    6.4952    0.7500    0.0000 C   0  0  0  0  0  0  0  0  0  0  0  0
    5.1962   -1.5000    0.0000 N   0  0  0  0  0  0  0  0  0  0  0  0
    6.4952   -2.2500    0.0000 C   0  0  0  0  0  0  0  0  0  0  0  0
  1  2  1  0
  2  3  1  0
  3  4  1  0
  4  5  1  0
  5  6  1  0
  5  7  1  0
  7  8  1  0
M  END
>  <Title>  (407) 
idAANSgen14

$$$$

     RDKit          2D

 38 42  0  0  0  0  0  0  0  0999 V2000
   -3.1981   -1.5132    0.0000 C   0  0  0  0  0  0  0  0  0  0  0  0
   -1.8991   -2.2632    0.0000 C   0  0  0  0  0  0  0  0  0  0  0  0
   -2.1595   -3.7404    0.0000 C   0  0  0  0  0  0  0  0  0  0  0  0
   -1.4095   -5.0395    0.0000 C   0  0  0  0  0  0  0  0  0  0  0  0
   -0.0000   -5.5525    0.0000 C   0  0  0  0  0  0  0  0  0  0  0  0
    1.4095   -5.0395    0.0000 C   0  0  0  0  0  0  0  0  0  0  0  0
    2.1595   -3.7404    0.0000 C   0  0  0  0  0  0  0  0  0  0  0  0
    1.8991   -2.2632    0.0000 C   0  0  0  0  0  0  0  0  0  0  0  0
    3.1981   -1.5132    0.0000 C   0  0  0  0  0  0  0  0  0  0  0  0
    3.1981   -0.0132    0.0000 O   0  0  0  0  0  0  0  0  0  0  0  0
    4.4971   -2.2632    0.0000 N   0  0  0  0  0  0  0  0  0  0  0  0
    5.7962   -1.5132    0.0000 C   0  0  0  0  0  0  0  0  0  0  0  0
    5.9530   -0.0214    0.0000 N   0  0  0  0  0  0  0  0  0  0  0  0
    7.4202    0.2904    0.0000 N   0  0  0  0  0  0  0  0  0  0  0  0
    8.1702   -1.0086    0.0000 N   0  0  0  0  0  0  0  0  0  0  0  0
    7.1665   -2.1233    0.0000 N   0  0  0  0  0  0  0  0  0  0  0  0
    7.4784   -3.5905    0.0000 C   0  0  0  0  0  0  0  0  0  0  0  0
    8.8487   -4.2007    0.0000 C   0  0  0  0  0  0  0  0  0  0  0  0
    8.6919   -5.6924    0.0000 C   0  0  0  0  0  0  0  0  0  0  0  0
    7.2247   -6.0043    0.0000 C   0  0  0  0  0  0  0  0  0  0  0  0
    6.6146   -7.3746    0.0000 O   0  0  0  0  0  0  0  0  0  0  0  0
    5.1228   -7.5314    0.0000 C   0  0  0  0  0  0  0  0  0  0  0  0
    4.2411   -6.3179    0.0000 O   0  0  0  0  0  0  0  0  0  0  0  0
    4.5127   -8.9017    0.0000 N   0  0  0  0  0  0  0  0  0  0  0  0
    3.0209   -9.0585    0.0000 C   0  0  0  0  0  0  0  0  0  0  0  0
    2.1392   -7.8450    0.0000 N   0  0  0  0  0  0  0  0  0  0  0  0
    0.6474   -8.0018    0.0000 N   0  0  0  0  0  0  0  0  0  0  0  0
    0.0373   -9.3721    0.0000 N   0  0  0  0  0  0  0  0  0  0  0  0
    0.9190  -10.5856    0.0000 N   0  0  0  0  0  0  0  0  0  0  0  0
    2.4108  -10.4288    0.0000 N   0  0  0  0  0  0  0  0  0  0  0  0
    6.4747   -4.7053    0.0000 C   0  0  0  0  0  0  0  0  0  0  0  0
    4.9829   -4.5485    0.0000 O   0  0  0  0  0  0  0  0  0  0  0  0
    0.7500   -1.2990    0.0000 C   0  0  0  0  0  0  0  0  0  0  0  0
    1.5000    0.0000    0.0000 C   0  0  0  0  0  0  0  0  0  0  0  0
    0.7500    1.2990    0.0000 C   0  0  0  0  0  0  0  0  0  0  0  0
   -0.7500    1.2990    0.0000 C   0  0  0  0  0  0  0  0  0  0  0  0
   -1.5000    0.0000    0.0000 C   0  0  0  0  0  0  0  0  0  0  0  0
   -0.7500   -1.2990    0.0000 C   0  0  0  0  0  0  0  0  0  0  0  0
  1  2  1  0
  2  3  1  0
  3  4  2  0
  4  5  1  0
  5  6  1  0
  6  7  1  0
  7  8  1  0
  8  9  1  0
  9 10  2  0
  9 11  1  0
 11 12  1  0
 12 13  2  0
 13 14  1  0
 14 15  2  0
 15 16  1  0
 16 17  1  0
 17 18  2  0
 18 19  1  0
 19 20  2  0
 20 21  1  0
 21 22  1  0
 22 23  2  0
 22 24  1  0
 24 25  1  0
 25 26  2  0
 26 27  1  0
 27 28  2  0
 28 29  1  0
 29 30  2  0
 20 31  1  0
 31 32  2  0
  8 33  1  0
 33 34  2  0
 34 35  1  0
 35 36  2  0
 36 37  1  0
 37 38  2  0
 38  2  1  0
 16 12  1  0
 31 17  1  0
 38 33  1  0
 30 25  1  0
M  END
>  <Title>  (408) 
idAANTgen14

$$$$

     RDKit          2D

  7  7  0  0  0  0  0  0  0  0999 V2000
    3.0000    0.0000    0.0000 C   0  0  0  0  0  0  0  0  0  0  0  0
    1.5000    0.0000    0.0000 C   0  0  0  0  0  0  0  0  0  0  0  0
    0.7500   -1.2990    0.0000 N   0  0  0  0  0  0  0  0  0  0  0  0
   -0.7500   -1.2990    0.0000 N   0  0  0  0  0  0  0  0  0  0  0  0
   -1.5000    0.0000    0.0000 C   0  0  0  0  0  0  0  0  0  0  0  0
   -0.7500    1.2990    0.0000 N   0  0  0  0  0  0  0  0  0  0  0  0
    0.7500    1.2990    0.0000 C   0  0  0  0  0  0  0  0  0  0  0  0
  1  2  1  0
  2  3  2  0
  3  4  1  0
  4  5  1  0
  5  6  1  0
  6  7  1  0
  7  2  1  0
M  END
>  <Title>  (409) 
idAANUgen14

$$$$

     RDKit          2D

 15 15  0  0  0  0  0  0  0  0999 V2000
    9.7500   -3.8971    0.0000 C   0  0  0  0  0  0  0  0  0  0  0  0
    8.2500   -3.8971    0.0000 C   0  0  0  0  0  0  0  0  0  0  0  0
    7.5000   -5.1962    0.0000 C   0  0  0  0  0  0  0  0  0  0  0  0
    7.5000   -2.5981    0.0000 C   0  0  0  0  0  0  0  0  0  0  0  0
    6.0000   -2.5981    0.0000 N   0  0  0  0  0  0  0  0  0  0  0  0
    5.2500   -1.2990    0.0000 S   0  0  0  0  0  0  0  0  0  0  0  0
    6.0000    0.0000    0.0000 O   0  0  0  0  0  0  0  0  0  0  0  0
    3.7500   -1.2990    0.0000 C   0  0  0  0  0  0  0  0  0  0  0  0
    3.0000    0.0000    0.0000 C   0  0  0  0  0  0  0  0  0  0  0  0
    1.5000    0.0000    0.0000 C   0  0  0  0  0  0  0  0  0  0  0  0
    0.7500   -1.2990    0.0000 C   0  0  0  0  0  0  0  0  0  0  0  0
   -0.7500   -1.2990    0.0000 C   0  0  0  0  0  0  0  0  0  0  0  0
   -1.5000    0.0000    0.0000 C   0  0  0  0  0  0  0  0  0  0  0  0
   -0.7500    1.2990    0.0000 N   0  0  0  0  0  0  0  0  0  0  0  0
    0.7500    1.2990    0.0000 C   0  0  0  0  0  0  0  0  0  0  0  0
  1  2  1  0
  2  3  1  0
  2  4  1  0
  4  5  1  0
  5  6  1  0
  6  7  2  0
  6  8  1  0
  8  9  1  0
  9 10  1  0
 10 11  2  0
 11 12  1  0
 12 13  2  0
 13 14  1  0
 14 15  2  0
 15 10  1  0
M  END
>  <Title>  (410) 
idAANVgen14

$$$$

     RDKit          2D

112113  0  0  0  0  0  0  0  0999 V2000
   -1.6399   -2.4072    0.0000 C   0  0  0  0  0  0  0  0  0  0  0  0
   -0.4075   -3.2623    0.0000 C   0  0  0  0  0  0  0  0  0  0  0  0
   -1.5047   -4.2851    0.0000 C   0  0  0  0  0  0  0  0  0  0  0  0
   -2.5375   -5.3729    0.0000 C   0  0  0  0  0  0  0  0  0  0  0  0
   -3.5021   -6.5216    0.0000 C   0  0  0  0  0  0  0  0  0  0  0  0
   -4.3948   -7.7270    0.0000 C   0  0  0  0  0  0  0  0  0  0  0  0
   -5.2124   -8.9846    0.0000 C   0  0  0  0  0  0  0  0  0  0  0  0
   -5.9519  -10.2897    0.0000 C   0  0  0  0  0  0  0  0  0  0  0  0
   -6.6103  -11.6375    0.0000 C   0  0  0  0  0  0  0  0  0  0  0  0
   -7.1854  -13.0229    0.0000 C   0  0  0  0  0  0  0  0  0  0  0  0
   -7.6750  -14.4407    0.0000 C   0  0  0  0  0  0  0  0  0  0  0  0
   -8.0772  -15.8858    0.0000 C   0  0  0  0  0  0  0  0  0  0  0  0
   -8.3905  -17.3527    0.0000 C   0  0  0  0  0  0  0  0  0  0  0  0
   -8.6139  -18.8360    0.0000 C   0  0  0  0  0  0  0  0  0  0  0  0
   -8.7464  -20.3301    0.0000 C   0  0  0  0  0  0  0  0  0  0  0  0
   -8.7875  -21.8295    0.0000 C   0  0  0  0  0  0  0  0  0  0  0  0
   -8.7372  -23.3287    0.0000 C   0  0  0  0  0  0  0  0  0  0  0  0
   -8.5956  -24.8220    0.0000 C   0  0  0  0  0  0  0  0  0  0  0  0
   -8.3632  -26.3039    0.0000 C   0  0  0  0  0  0  0  0  0  0  0  0
   -8.0409  -27.7688    0.0000 C   0  0  0  0  0  0  0  0  0  0  0  0
   -7.6299  -29.2114    0.0000 C   0  0  0  0  0  0  0  0  0  0  0  0
   -7.1317  -30.6263    0.0000 C   0  0  0  0  0  0  0  0  0  0  0  0
   -6.5482  -32.0081    0.0000 C   0  0  0  0  0  0  0  0  0  0  0  0
   -5.8815  -33.3518    0.0000 C   0  0  0  0  0  0  0  0  0  0  0  0
   -5.1342  -34.6524    0.0000 C   0  0  0  0  0  0  0  0  0  0  0  0
   -4.3089  -35.9050    0.0000 C   0  0  0  0  0  0  0  0  0  0  0  0
   -3.4088  -37.1049    0.0000 C   0  0  0  0  0  0  0  0  0  0  0  0
   -2.4373  -38.2478    0.0000 C   0  0  0  0  0  0  0  0  0  0  0  0
   -1.3978  -39.3292    0.0000 C   0  0  0  0  0  0  0  0  0  0  0  0
   -0.2944  -40.3453    0.0000 C   0  0  0  0  0  0  0  0  0  0  0  0
    0.8689  -41.2923    0.0000 C   0  0  0  0  0  0  0  0  0  0  0  0
    2.0878  -42.1665    0.0000 C   0  0  0  0  0  0  0  0  0  0  0  0
    3.3577  -42.9649    0.0000 C   0  0  0  0  0  0  0  0  0  0  0  0
    4.6739  -43.6843    0.0000 C   0  0  0  0  0  0  0  0  0  0  0  0
    6.0315  -44.3221    0.0000 C   0  0  0  0  0  0  0  0  0  0  0  0
    7.4255  -44.8760    0.0000 C   0  0  0  0  0  0  0  0  0  0  0  0
    8.8507  -45.3439    0.0000 C   0  0  0  0  0  0  0  0  0  0  0  0
   10.3017  -45.7240    0.0000 C   0  0  0  0  0  0  0  0  0  0  0  0
   11.7733  -46.0150    0.0000 C   0  0  0  0  0  0  0  0  0  0  0  0
   13.2598  -46.2157    0.0000 C   0  0  0  0  0  0  0  0  0  0  0  0
   14.7557  -46.3254    0.0000 C   0  0  0  0  0  0  0  0  0  0  0  0
   16.2556  -46.3437    0.0000 C   0  0  0  0  0  0  0  0  0  0  0  0
   17.7538  -46.2705    0.0000 C   0  0  0  0  0  0  0  0  0  0  0  0
   19.2448  -46.1061    0.0000 C   0  0  0  0  0  0  0  0  0  0  0  0
   20.7230  -45.8512    0.0000 C   0  0  0  0  0  0  0  0  0  0  0  0
   22.1829  -45.5065    0.0000 C   0  0  0  0  0  0  0  0  0  0  0  0
   23.6190  -45.0736    0.0000 C   0  0  0  0  0  0  0  0  0  0  0  0
   25.0261  -44.5539    0.0000 C   0  0  0  0  0  0  0  0  0  0  0  0
   26.3989  -43.9493    0.0000 C   0  0  0  0  0  0  0  0  0  0  0  0
   27.7323  -43.2623    0.0000 C   0  0  0  0  0  0  0  0  0  0  0  0
   29.0213  -42.4951    0.0000 C   0  0  0  0  0  0  0  0  0  0  0  0
   30.2611  -41.6509    0.0000 C   0  0  0  0  0  0  0  0  0  0  0  0
   31.4472  -40.7326    0.0000 C   0  0  0  0  0  0  0  0  0  0  0  0
   32.5751  -39.7437    0.0000 C   0  0  0  0  0  0  0  0  0  0  0  0
   33.6406  -38.6879    0.0000 C   0  0  0  0  0  0  0  0  0  0  0  0
   34.6398  -37.5691    0.0000 C   0  0  0  0  0  0  0  0  0  0  0  0
   35.5688  -36.3915    0.0000 C   0  0  0  0  0  0  0  0  0  0  0  0
   36.4244  -35.1595    0.0000 C   0  0  0  0  0  0  0  0  0  0  0  0
   37.2033  -33.8775    0.0000 C   0  0  0  0  0  0  0  0  0  0  0  0
   37.9025  -32.5505    0.0000 C   0  0  0  0  0  0  0  0  0  0  0  0
   38.5196  -31.1833    0.0000 C   0  0  0  0  0  0  0  0  0  0  0  0
   39.0522  -29.7810    0.0000 C   0  0  0  0  0  0  0  0  0  0  0  0
   39.4983  -28.3489    0.0000 C   0  0  0  0  0  0  0  0  0  0  0  0
   39.8562  -26.8922    0.0000 C   0  0  0  0  0  0  0  0  0  0  0  0
   40.1247  -25.4164    0.0000 C   0  0  0  0  0  0  0  0  0  0  0  0
   40.3027  -23.9270    0.0000 C   0  0  0  0  0  0  0  0  0  0  0  0
   40.3896  -22.4295    0.0000 C   0  0  0  0  0  0  0  0  0  0  0  0
   40.3850  -20.9296    0.0000 C   0  0  0  0  0  0  0  0  0  0  0  0
   40.2890  -19.4326    0.0000 C   0  0  0  0  0  0  0  0  0  0  0  0
   40.1019  -17.9443    0.0000 C   0  0  0  0  0  0  0  0  0  0  0  0
   39.8244  -16.4702    0.0000 C   0  0  0  0  0  0  0  0  0  0  0  0
   39.4576  -15.0158    0.0000 C   0  0  0  0  0  0  0  0  0  0  0  0
   39.0028  -13.5864    0.0000 C   0  0  0  0  0  0  0  0  0  0  0  0
   38.4617  -12.1874    0.0000 C   0  0  0  0  0  0  0  0  0  0  0  0
   37.8363  -10.8240    0.0000 C   0  0  0  0  0  0  0  0  0  0  0  0
   37.1289   -9.5012    0.0000 C   0  0  0  0  0  0  0  0  0  0  0  0
   36.3423   -8.2241    0.0000 C   0  0  0  0  0  0  0  0  0  0  0  0
   35.4792   -6.9972    0.0000 C   0  0  0  0  0  0  0  0  0  0  0  0
   34.5429   -5.8253    0.0000 C   0  0  0  0  0  0  0  0  0  0  0  0
   33.5370   -4.7126    0.0000 C   0  0  0  0  0  0  0  0  0  0  0  0
   32.4651   -3.6634    0.0000 C   0  0  0  0  0  0  0  0  0  0  0  0
   31.3312   -2.6814    0.0000 C   0  0  0  0  0  0  0  0  0  0  0  0
   30.1395   -1.7704    0.0000 C   0  0  0  0  0  0  0  0  0  0  0  0
   28.8945   -0.9337    0.0000 C   0  0  0  0  0  0  0  0  0  0  0  0
   27.6009   -0.1745    0.0000 C   0  0  0  0  0  0  0  0  0  0  0  0
   26.2633    0.5045    0.0000 C   0  0  0  0  0  0  0  0  0  0  0  0
   24.8869    1.1006    0.0000 C   0  0  0  0  0  0  0  0  0  0  0  0
   23.4766    1.6118    0.0000 C   0  0  0  0  0  0  0  0  0  0  0  0
   22.0379    2.0360    0.0000 C   0  0  0  0  0  0  0  0  0  0  0  0
   20.5759    2.3716    0.0000 C   0  0  0  0  0  0  0  0  0  0  0  0
   19.0962    2.6176    0.0000 C   0  0  0  0  0  0  0  0  0  0  0  0
   17.6043    2.7729    0.0000 C   0  0  0  0  0  0  0  0  0  0  0  0
   16.1056    2.8369    0.0000 C   0  0  0  0  0  0  0  0  0  0  0  0
   14.6059    2.8094    0.0000 C   0  0  0  0  0  0  0  0  0  0  0  0
   13.1106    2.6906    0.0000 C   0  0  0  0  0  0  0  0  0  0  0  0
   11.6253    2.4808    0.0000 C   0  0  0  0  0  0  0  0  0  0  0  0
   10.1556    2.1809    0.0000 C   0  0  0  0  0  0  0  0  0  0  0  0
    8.7069    1.7920    0.0000 C   0  0  0  0  0  0  0  0  0  0  0  0
    7.2846    1.3154    0.0000 C   0  0  0  0  0  0  0  0  0  0  0  0
    5.8941    0.7530    0.0000 C   0  0  0  0  0  0  0  0  0  0  0  0
    4.5404    0.1069    0.0000 C   0  0  0  0  0  0  0  0  0  0  0  0
    3.2285   -0.6205    0.0000 C   0  0  0  0  0  0  0  0  0  0  0  0
    1.9635   -1.4266    0.0000 C   0  0  0  0  0  0  0  0  0  0  0  0
    2.4271    0.0000    0.0000 C   0  0  0  0  0  0  0  0  0  0  0  0
    1.9635    1.4266    0.0000 C   0  0  0  0  0  0  0  0  0  0  0  0
    0.7500    2.3083    0.0000 C   0  0  0  0  0  0  0  0  0  0  0  0
   -0.7500    2.3083    0.0000 C   0  0  0  0  0  0  0  0  0  0  0  0
   -1.9635    1.4266    0.0000 C   0  0  0  0  0  0  0  0  0  0  0  0
   -2.4271    0.0000    0.0000 C   0  0  0  0  0  0  0  0  0  0  0  0
   -1.9635   -1.4266    0.0000 C   0  0  0  0  0  0  0  0  0  0  0  0
   -0.7500   -2.3083    0.0000 C   0  0  0  0  0  0  0  0  0  0  0  0
    0.7500   -2.3083    0.0000 C   0  0  0  0  0  0  0  0  0  0  0  0
  1  2  1  0
  2  3  1  0
  3  4  1  0
  4  5  1  0
  5  6  1  0
  6  7  1  0
  7  8  1  0
  8  9  1  0
  9 10  1  0
 10 11  1  0
 11 12  1  0
 12 13  1  0
 13 14  1  0
 14 15  1  0
 15 16  1  0
 16 17  1  0
 17 18  1  0
 18 19  1  0
 19 20  1  0
 20 21  1  0
 21 22  1  0
 22 23  1  0
 23 24  1  0
 24 25  1  0
 25 26  1  0
 26 27  1  0
 27 28  1  0
 28 29  1  0
 29 30  1  0
 30 31  1  0
 31 32  1  0
 32 33  1  0
 33 34  1  0
 34 35  1  0
 35 36  1  0
 36 37  1  0
 37 38  1  0
 38 39  1  0
 39 40  1  0
 40 41  1  0
 41 42  1  0
 42 43  1  0
 43 44  1  0
 44 45  1  0
 45 46  1  0
 46 47  1  0
 47 48  1  0
 48 49  1  0
 49 50  1  0
 50 51  1  0
 51 52  1  0
 52 53  1  0
 53 54  1  0
 54 55  1  0
 55 56  1  0
 56 57  1  0
 57 58  1  0
 58 59  1  0
 59 60  1  0
 60 61  1  0
 61 62  1  0
 62 63  1  0
 63 64  1  0
 64 65  1  0
 65 66  1  0
 66 67  1  0
 67 68  1  0
 68 69  1  0
 69 70  1  0
 70 71  1  0
 71 72  1  0
 72 73  1  0
 73 74  1  0
 74 75  1  0
 75 76  1  0
 76 77  1  0
 77 78  1  0
 78 79  1  0
 79 80  1  0
 80 81  1  0
 81 82  1  0
 82 83  1  0
 83 84  1  0
 84 85  1  0
 85 86  1  0
 86 87  1  0
 87 88  1  0
 88 89  1  0
 89 90  1  0
 90 91  1  0
 91 92  1  0
 92 93  1  0
 93 94  1  0
 94 95  1  0
 95 96  1  0
 96 97  1  0
 97 98  1  0
 98 99  1  0
 99100  1  0
100101  1  0
101102  1  0
102103  1  0
103104  1  0
104105  1  0
105106  1  0
106107  1  0
107108  2  0
108109  1  0
109110  2  0
110111  1  0
111112  2  0
112  2  1  0
112103  1  0
M  END
>  <Title>  (411) 
idAANWgen14

$$$$

     RDKit          2D

109111  0  0  0  0  0  0  0  0999 V2000
   -5.5359   -0.3984    0.0000 C   0  0  0  0  0  0  0  0  0  0  0  0
   -5.2086   -1.8623    0.0000 C   0  0  0  0  0  0  0  0  0  0  0  0
   -6.6615   -2.2353    0.0000 C   0  0  0  0  0  0  0  0  0  0  0  0
   -8.0881   -2.6989    0.0000 C   0  0  0  0  0  0  0  0  0  0  0  0
   -9.4828   -3.2510    0.0000 C   0  0  0  0  0  0  0  0  0  0  0  0
  -10.8400   -3.8897    0.0000 C   0  0  0  0  0  0  0  0  0  0  0  0
  -12.1545   -4.6123    0.0000 C   0  0  0  0  0  0  0  0  0  0  0  0
  -13.4210   -5.4161    0.0000 C   0  0  0  0  0  0  0  0  0  0  0  0
  -14.6345   -6.2978    0.0000 C   0  0  0  0  0  0  0  0  0  0  0  0
  -15.7903   -7.2539    0.0000 C   0  0  0  0  0  0  0  0  0  0  0  0
  -16.8837   -8.2807    0.0000 C   0  0  0  0  0  0  0  0  0  0  0  0
  -17.9105   -9.3742    0.0000 C   0  0  0  0  0  0  0  0  0  0  0  0
  -18.8667  -10.5299    0.0000 C   0  0  0  0  0  0  0  0  0  0  0  0
  -19.7483  -11.7435    0.0000 C   0  0  0  0  0  0  0  0  0  0  0  0
  -20.5521  -13.0100    0.0000 C   0  0  0  0  0  0  0  0  0  0  0  0
  -21.2747  -14.3244    0.0000 C   0  0  0  0  0  0  0  0  0  0  0  0
  -21.9134  -15.6817    0.0000 C   0  0  0  0  0  0  0  0  0  0  0  0
  -22.4656  -17.0763    0.0000 C   0  0  0  0  0  0  0  0  0  0  0  0
  -22.9291  -18.5029    0.0000 C   0  0  0  0  0  0  0  0  0  0  0  0
  -23.3021  -19.9558    0.0000 C   0  0  0  0  0  0  0  0  0  0  0  0
  -23.5832  -21.4292    0.0000 C   0  0  0  0  0  0  0  0  0  0  0  0
  -23.7712  -22.9174    0.0000 C   0  0  0  0  0  0  0  0  0  0  0  0
  -23.8654  -24.4144    0.0000 C   0  0  0  0  0  0  0  0  0  0  0  0
  -23.8654  -25.9144    0.0000 C   0  0  0  0  0  0  0  0  0  0  0  0
  -23.7712  -27.4115    0.0000 C   0  0  0  0  0  0  0  0  0  0  0  0
  -23.5832  -28.8996    0.0000 C   0  0  0  0  0  0  0  0  0  0  0  0
  -23.3021  -30.3731    0.0000 C   0  0  0  0  0  0  0  0  0  0  0  0
  -22.9291  -31.8259    0.0000 C   0  0  0  0  0  0  0  0  0  0  0  0
  -22.4656  -33.2525    0.0000 C   0  0  0  0  0  0  0  0  0  0  0  0
  -21.9134  -34.6472    0.0000 C   0  0  0  0  0  0  0  0  0  0  0  0
  -21.2747  -36.0044    0.0000 C   0  0  0  0  0  0  0  0  0  0  0  0
  -20.5521  -37.3189    0.0000 C   0  0  0  0  0  0  0  0  0  0  0  0
  -19.7483  -38.5854    0.0000 C   0  0  0  0  0  0  0  0  0  0  0  0
  -18.8667  -39.7989    0.0000 C   0  0  0  0  0  0  0  0  0  0  0  0
  -17.9105  -40.9547    0.0000 C   0  0  0  0  0  0  0  0  0  0  0  0
  -16.8837  -42.0481    0.0000 C   0  0  0  0  0  0  0  0  0  0  0  0
  -15.7903  -43.0750    0.0000 C   0  0  0  0  0  0  0  0  0  0  0  0
  -14.6345  -44.0311    0.0000 C   0  0  0  0  0  0  0  0  0  0  0  0
  -13.4210  -44.9128    0.0000 C   0  0  0  0  0  0  0  0  0  0  0  0
  -12.1545  -45.7165    0.0000 C   0  0  0  0  0  0  0  0  0  0  0  0
  -10.8400  -46.4391    0.0000 C   0  0  0  0  0  0  0  0  0  0  0  0
   -9.4828  -47.0778    0.0000 C   0  0  0  0  0  0  0  0  0  0  0  0
   -8.0881  -47.6300    0.0000 C   0  0  0  0  0  0  0  0  0  0  0  0
   -6.6615  -48.0935    0.0000 C   0  0  0  0  0  0  0  0  0  0  0  0
   -5.2086  -48.4666    0.0000 C   0  0  0  0  0  0  0  0  0  0  0  0
   -3.7352  -48.7476    0.0000 C   0  0  0  0  0  0  0  0  0  0  0  0
   -2.2470  -48.9356    0.0000 C   0  0  0  0  0  0  0  0  0  0  0  0
   -0.7500  -49.0298    0.0000 C   0  0  0  0  0  0  0  0  0  0  0  0
    0.7500  -49.0298    0.0000 C   0  0  0  0  0  0  0  0  0  0  0  0
    2.2470  -48.9356    0.0000 C   0  0  0  0  0  0  0  0  0  0  0  0
    3.7352  -48.7476    0.0000 C   0  0  0  0  0  0  0  0  0  0  0  0
    5.2086  -48.4666    0.0000 C   0  0  0  0  0  0  0  0  0  0  0  0
    6.6615  -48.0935    0.0000 C   0  0  0  0  0  0  0  0  0  0  0  0
    8.0881  -47.6300    0.0000 C   0  0  0  0  0  0  0  0  0  0  0  0
    9.4828  -47.0778    0.0000 C   0  0  0  0  0  0  0  0  0  0  0  0
   10.8400  -46.4391    0.0000 C   0  0  0  0  0  0  0  0  0  0  0  0
   12.1545  -45.7165    0.0000 C   0  0  0  0  0  0  0  0  0  0  0  0
   13.4210  -44.9128    0.0000 C   0  0  0  0  0  0  0  0  0  0  0  0
   14.6345  -44.0311    0.0000 C   0  0  0  0  0  0  0  0  0  0  0  0
   15.7903  -43.0750    0.0000 C   0  0  0  0  0  0  0  0  0  0  0  0
   16.8837  -42.0481    0.0000 C   0  0  0  0  0  0  0  0  0  0  0  0
   17.9105  -40.9547    0.0000 C   0  0  0  0  0  0  0  0  0  0  0  0
   18.8667  -39.7989    0.0000 C   0  0  0  0  0  0  0  0  0  0  0  0
   19.7483  -38.5854    0.0000 C   0  0  0  0  0  0  0  0  0  0  0  0
   20.5521  -37.3189    0.0000 C   0  0  0  0  0  0  0  0  0  0  0  0
   21.2747  -36.0044    0.0000 C   0  0  0  0  0  0  0  0  0  0  0  0
   21.9134  -34.6472    0.0000 C   0  0  0  0  0  0  0  0  0  0  0  0
   22.4656  -33.2525    0.0000 C   0  0  0  0  0  0  0  0  0  0  0  0
   22.9291  -31.8259    0.0000 C   0  0  0  0  0  0  0  0  0  0  0  0
   23.3021  -30.3731    0.0000 C   0  0  0  0  0  0  0  0  0  0  0  0
   23.5832  -28.8996    0.0000 C   0  0  0  0  0  0  0  0  0  0  0  0
   23.7712  -27.4115    0.0000 C   0  0  0  0  0  0  0  0  0  0  0  0
   23.8654  -25.9144    0.0000 C   0  0  0  0  0  0  0  0  0  0  0  0
   23.8654  -24.4144    0.0000 C   0  0  0  0  0  0  0  0  0  0  0  0
   23.7712  -22.9174    0.0000 C   0  0  0  0  0  0  0  0  0  0  0  0
   23.5832  -21.4292    0.0000 C   0  0  0  0  0  0  0  0  0  0  0  0
   23.3021  -19.9558    0.0000 C   0  0  0  0  0  0  0  0  0  0  0  0
   22.9291  -18.5029    0.0000 C   0  0  0  0  0  0  0  0  0  0  0  0
   22.4656  -17.0763    0.0000 C   0  0  0  0  0  0  0  0  0  0  0  0
   21.9134  -15.6817    0.0000 C   0  0  0  0  0  0  0  0  0  0  0  0
   21.2747  -14.3244    0.0000 C   0  0  0  0  0  0  0  0  0  0  0  0
   20.5521  -13.0100    0.0000 C   0  0  0  0  0  0  0  0  0  0  0  0
   19.7483  -11.7435    0.0000 C   0  0  0  0  0  0  0  0  0  0  0  0
   18.8667  -10.5299    0.0000 C   0  0  0  0  0  0  0  0  0  0  0  0
   17.9105   -9.3742    0.0000 C   0  0  0  0  0  0  0  0  0  0  0  0
   16.8837   -8.2807    0.0000 C   0  0  0  0  0  0  0  0  0  0  0  0
   15.7903   -7.2539    0.0000 C   0  0  0  0  0  0  0  0  0  0  0  0
   14.6345   -6.2978    0.0000 C   0  0  0  0  0  0  0  0  0  0  0  0
   13.4210   -5.4161    0.0000 C   0  0  0  0  0  0  0  0  0  0  0  0
   12.1545   -4.6123    0.0000 C   0  0  0  0  0  0  0  0  0  0  0  0
   10.8400   -3.8897    0.0000 C   0  0  0  0  0  0  0  0  0  0  0  0
    9.4828   -3.2510    0.0000 C   0  0  0  0  0  0  0  0  0  0  0  0
    8.0881   -2.6989    0.0000 C   0  0  0  0  0  0  0  0  0  0  0  0
    6.6615   -2.2353    0.0000 C   0  0  0  0  0  0  0  0  0  0  0  0
    5.2086   -1.8623    0.0000 C   0  0  0  0  0  0  0  0  0  0  0  0
    3.7352   -1.5812    0.0000 C   0  0  0  0  0  0  0  0  0  0  0  0
    2.2470   -1.3932    0.0000 C   0  0  0  0  0  0  0  0  0  0  0  0
    0.7500   -1.2990    0.0000 C   0  0  0  0  0  0  0  0  0  0  0  0
    1.5000    0.0000    0.0000 C   0  0  0  0  0  0  0  0  0  0  0  0
    0.7500    1.2990    0.0000 C   0  0  0  0  0  0  0  0  0  0  0  0
   -0.7500    1.2990    0.0000 C   0  0  0  0  0  0  0  0  0  0  0  0
   -1.5000    0.0000    0.0000 C   0  0  0  0  0  0  0  0  0  0  0  0
   -0.7500   -1.2990    0.0000 C   0  0  0  0  0  0  0  0  0  0  0  0
   -2.2470   -1.3932    0.0000 C   0  0  0  0  0  0  0  0  0  0  0  0
   -1.3401   -2.5880    0.0000 C   0  0  0  0  0  0  0  0  0  0  0  0
   -1.9214   -3.9708    0.0000 C   0  0  0  0  0  0  0  0  0  0  0  0
   -3.4096   -4.1588    0.0000 C   0  0  0  0  0  0  0  0  0  0  0  0
   -4.3165   -2.9640    0.0000 C   0  0  0  0  0  0  0  0  0  0  0  0
   -3.7352   -1.5812    0.0000 C   0  0  0  0  0  0  0  0  0  0  0  0
  1  2  1  0
  2  3  1  0
  3  4  1  0
  4  5  1  0
  5  6  1  0
  6  7  1  0
  7  8  1  0
  8  9  1  0
  9 10  1  0
 10 11  1  0
 11 12  1  0
 12 13  1  0
 13 14  1  0
 14 15  1  0
 15 16  1  0
 16 17  1  0
 17 18  1  0
 18 19  1  0
 19 20  1  0
 20 21  1  0
 21 22  1  0
 22 23  1  0
 23 24  1  0
 24 25  1  0
 25 26  1  0
 26 27  1  0
 27 28  1  0
 28 29  1  0
 29 30  1  0
 30 31  1  0
 31 32  1  0
 32 33  1  0
 33 34  1  0
 34 35  1  0
 35 36  1  0
 36 37  1  0
 37 38  1  0
 38 39  1  0
 39 40  1  0
 40 41  1  0
 41 42  1  0
 42 43  1  0
 43 44  1  0
 44 45  1  0
 45 46  1  0
 46 47  1  0
 47 48  1  0
 48 49  1  0
 49 50  1  0
 50 51  1  0
 51 52  1  0
 52 53  1  0
 53 54  1  0
 54 55  1  0
 55 56  1  0
 56 57  1  0
 57 58  1  0
 58 59  1  0
 59 60  1  0
 60 61  1  0
 61 62  1  0
 62 63  1  0
 63 64  1  0
 64 65  1  0
 65 66  1  0
 66 67  1  0
 67 68  1  0
 68 69  1  0
 69 70  1  0
 70 71  1  0
 71 72  1  0
 72 73  1  0
 73 74  1  0
 74 75  1  0
 75 76  1  0
 76 77  1  0
 77 78  1  0
 78 79  1  0
 79 80  1  0
 80 81  1  0
 81 82  1  0
 82 83  1  0
 83 84  1  0
 84 85  1  0
 85 86  1  0
 86 87  1  0
 87 88  1  0
 88 89  1  0
 89 90  1  0
 90 91  1  0
 91 92  1  0
 92 93  1  0
 93 94  1  0
 94 95  1  0
 95 96  1  0
 96 97  1  0
 97 98  1  0
 98 99  2  0
 99100  1  0
100101  2  0
101102  1  0
102103  2  0
103104  1  0
104105  2  0
105106  1  0
106107  2  0
107108  1  0
108109  2  0
109  2  1  0
103 98  1  0
109104  1  0
M  END
>  <Title>  (412) 
idAANXgen14

$$$$

     RDKit          2D

  5  4  0  0  0  0  0  0  0  0999 V2000
    0.0000    0.0000    0.0000 C   0  0  0  0  0  0  0  0  0  0  0  0
    1.2990    0.7500    0.0000 C   0  0  0  0  0  0  0  0  0  0  0  0
    2.5981   -0.0000    0.0000 C   0  0  0  0  0  0  0  0  0  0  0  0
    3.8971    0.7500    0.0000 C   0  0  0  0  0  0  0  0  0  0  0  0
    5.1962   -0.0000    0.0000 C   0  0  0  0  0  0  0  0  0  0  0  0
  1  2  2  0
  2  3  1  0
  3  4  1  0
  4  5  1  0
M  END
>  <Title>  (413) 
idAANYgen14

$$$$

     RDKit          2D

 58 66  0  0  0  0  0  0  0  0999 V2000
    4.3881   -6.6982    0.0000 C   0  0  0  0  0  0  0  0  0  0  0  0
    3.0367   -6.0474    0.0000 C   0  0  0  0  0  0  0  0  0  0  0  0
    3.3705   -4.5850    0.0000 C   0  0  0  0  0  0  0  0  0  0  0  0
    3.0367   -3.1226    0.0000 C   0  0  0  0  0  0  0  0  0  0  0  0
    2.1015   -1.9499    0.0000 C   0  0  0  0  0  0  0  0  0  0  0  0
    3.0367   -0.7771    0.0000 C   0  0  0  0  0  0  0  0  0  0  0  0
    2.4887    0.6192    0.0000 O   0  0  0  0  0  0  0  0  0  0  0  0
    4.5199   -1.0007    0.0000 N   0  0  0  0  0  0  0  0  0  0  0  0
    5.4552    0.1721    0.0000 C   0  0  0  0  0  0  0  0  0  0  0  0
    5.0561    1.6180    0.0000 N   0  0  0  0  0  0  0  0  0  0  0  0
    6.3080    2.4444    0.0000 N   0  0  0  0  0  0  0  0  0  0  0  0
    7.4807    1.5091    0.0000 N   0  0  0  0  0  0  0  0  0  0  0  0
    6.9537    0.1048    0.0000 N   0  0  0  0  0  0  0  0  0  0  0  0
    7.7800   -1.1471    0.0000 N   0  0  0  0  0  0  0  0  0  0  0  0
    9.2785   -1.2144    0.0000 C   0  0  0  0  0  0  0  0  0  0  0  0
    9.6775   -2.6603    0.0000 C   0  0  0  0  0  0  0  0  0  0  0  0
    8.4257   -3.4867    0.0000 N   0  0  0  0  0  0  0  0  0  0  0  0
    8.3584   -4.9852    0.0000 C   0  0  0  0  0  0  0  0  0  0  0  0
    9.6225   -5.7927    0.0000 O   0  0  0  0  0  0  0  0  0  0  0  0
    7.0270   -5.6761    0.0000 N   0  0  0  0  0  0  0  0  0  0  0  0
    6.9597   -7.1746    0.0000 C   0  0  0  0  0  0  0  0  0  0  0  0
    5.6283   -7.8656    0.0000 N   0  0  0  0  0  0  0  0  0  0  0  0
    5.5610   -9.3641    0.0000 N   0  0  0  0  0  0  0  0  0  0  0  0
    6.8251  -10.1716    0.0000 N   0  0  0  0  0  0  0  0  0  0  0  0
    8.1565   -9.4806    0.0000 N   0  0  0  0  0  0  0  0  0  0  0  0
    8.2238   -7.9821    0.0000 N   0  0  0  0  0  0  0  0  0  0  0  0
    7.2529   -2.5514    0.0000 C   0  0  0  0  0  0  0  0  0  0  0  0
    5.8070   -2.9505    0.0000 O   0  0  0  0  0  0  0  0  0  0  0  0
    0.7500   -1.2990    0.0000 C   0  0  0  0  0  0  0  0  0  0  0  0
    1.5000    0.0000    0.0000 C   0  0  0  0  0  0  0  0  0  0  0  0
    0.7500    1.2990    0.0000 C   0  0  0  0  0  0  0  0  0  0  0  0
   -0.7500    1.2990    0.0000 C   0  0  0  0  0  0  0  0  0  0  0  0
   -1.5000    0.0000    0.0000 C   0  0  0  0  0  0  0  0  0  0  0  0
   -0.7500   -1.2990    0.0000 C   0  0  0  0  0  0  0  0  0  0  0  0
   -2.1015   -1.9499    0.0000 C   0  0  0  0  0  0  0  0  0  0  0  0
   -2.6495   -0.5536    0.0000 C   0  0  0  0  0  0  0  0  0  0  0  0
   -4.1327   -0.3300    0.0000 C   0  0  0  0  0  0  0  0  0  0  0  0
   -5.0679   -1.5027    0.0000 C   0  0  0  0  0  0  0  0  0  0  0  0
   -4.5199   -2.8990    0.0000 C   0  0  0  0  0  0  0  0  0  0  0  0
   -3.0367   -3.1226    0.0000 C   0  0  0  0  0  0  0  0  0  0  0  0
   -3.3705   -4.5850    0.0000 C   0  0  0  0  0  0  0  0  0  0  0  0
   -4.8038   -4.1429    0.0000 C   0  0  0  0  0  0  0  0  0  0  0  0
   -5.9034   -5.1631    0.0000 C   0  0  0  0  0  0  0  0  0  0  0  0
   -5.5696   -6.6255    0.0000 C   0  0  0  0  0  0  0  0  0  0  0  0
   -4.1363   -7.0677    0.0000 C   0  0  0  0  0  0  0  0  0  0  0  0
   -3.0367   -6.0474    0.0000 C   0  0  0  0  0  0  0  0  0  0  0  0
   -2.1015   -7.2201    0.0000 C   0  0  0  0  0  0  0  0  0  0  0  0
   -3.3408   -8.0651    0.0000 C   0  0  0  0  0  0  0  0  0  0  0  0
   -3.2287   -9.5609    0.0000 C   0  0  0  0  0  0  0  0  0  0  0  0
   -1.8773  -10.2118    0.0000 C   0  0  0  0  0  0  0  0  0  0  0  0
   -0.6379   -9.3668    0.0000 C   0  0  0  0  0  0  0  0  0  0  0  0
   -0.7500   -7.8710    0.0000 C   0  0  0  0  0  0  0  0  0  0  0  0
    0.7500   -7.8710    0.0000 C   0  0  0  0  0  0  0  0  0  0  0  0
    0.6379   -9.3668    0.0000 C   0  0  0  0  0  0  0  0  0  0  0  0
    1.8773  -10.2118    0.0000 C   0  0  0  0  0  0  0  0  0  0  0  0
    3.2287   -9.5609    0.0000 C   0  0  0  0  0  0  0  0  0  0  0  0
    3.3408   -8.0651    0.0000 C   0  0  0  0  0  0  0  0  0  0  0  0
    2.1015   -7.2201    0.0000 C   0  0  0  0  0  0  0  0  0  0  0  0
  1  2  1  0
  2  3  1  0
  3  4  1  0
  4  5  1  0
  5  6  1  0
  6  7  2  0
  6  8  1  0
  8  9  1  0
  9 10  2  0
 10 11  1  0
 11 12  2  0
 12 13  1  0
 13 14  1  0
 14 15  1  0
 15 16  1  0
 16 17  1  0
 17 18  1  0
 18 19  2  0
 18 20  1  0
 20 21  1  0
 21 22  2  0
 22 23  1  0
 23 24  2  0
 24 25  1  0
 25 26  2  0
 17 27  1  0
 27 28  2  0
  5 29  1  0
 29 30  2  0
 30 31  1  0
 31 32  2  0
 32 33  1  0
 33 34  2  0
 34 35  1  0
 35 36  2  0
 36 37  1  0
 37 38  2  0
 38 39  1  0
 39 40  2  0
 40 41  1  0
 41 42  2  0
 42 43  1  0
 43 44  2  0
 44 45  1  0
 45 46  2  0
 46 47  1  0
 47 48  2  0
 48 49  1  0
 49 50  2  0
 50 51  1  0
 51 52  2  0
 52 53  1  0
 53 54  2  0
 54 55  1  0
 55 56  2  0
 56 57  1  0
 57 58  2  0
 58  2  1  0
 13  9  1  0
 27 14  1  0
 34 29  1  0
 40 35  1  0
 46 41  1  0
 52 47  1  0
 58 53  1  0
 26 21  1  0
M  END
>  <Title>  (414) 
idAANZgen14

$$$$

     RDKit          2D

 43 48  0  0  0  0  0  0  0  0999 V2000
   -3.1771   -5.9156    0.0000 C   0  0  0  0  0  0  0  0  0  0  0  0
   -1.9635   -5.0339    0.0000 C   0  0  0  0  0  0  0  0  0  0  0  0
   -0.7500   -5.9156    0.0000 C   0  0  0  0  0  0  0  0  0  0  0  0
    0.7500   -5.9156    0.0000 C   0  0  0  0  0  0  0  0  0  0  0  0
    1.9635   -5.0339    0.0000 C   0  0  0  0  0  0  0  0  0  0  0  0
    3.1771   -5.9156    0.0000 C   0  0  0  0  0  0  0  0  0  0  0  0
    4.5474   -5.3055    0.0000 O   0  0  0  0  0  0  0  0  0  0  0  0
    3.0203   -7.4073    0.0000 N   0  0  0  0  0  0  0  0  0  0  0  0
    4.2338   -8.2890    0.0000 C   0  0  0  0  0  0  0  0  0  0  0  0
    5.6604   -7.8255    0.0000 N   0  0  0  0  0  0  0  0  0  0  0  0
    6.5420   -9.0390    0.0000 N   0  0  0  0  0  0  0  0  0  0  0  0
    5.6604  -10.2525    0.0000 N   0  0  0  0  0  0  0  0  0  0  0  0
    4.2338   -9.7890    0.0000 N   0  0  0  0  0  0  0  0  0  0  0  0
    3.0203  -10.6707    0.0000 N   0  0  0  0  0  0  0  0  0  0  0  0
    3.0203  -12.1707    0.0000 C   0  0  0  0  0  0  0  0  0  0  0  0
    1.5937  -12.6342    0.0000 C   0  0  0  0  0  0  0  0  0  0  0  0
    0.7120  -11.4207    0.0000 N   0  0  0  0  0  0  0  0  0  0  0  0
   -0.7880  -11.4207    0.0000 C   0  0  0  0  0  0  0  0  0  0  0  0
   -1.5380  -12.7197    0.0000 O   0  0  0  0  0  0  0  0  0  0  0  0
   -1.5380  -10.1217    0.0000 N   0  0  0  0  0  0  0  0  0  0  0  0
   -3.0380  -10.1217    0.0000 C   0  0  0  0  0  0  0  0  0  0  0  0
   -3.7880   -8.8226    0.0000 N   0  0  0  0  0  0  0  0  0  0  0  0
   -5.2880   -8.8226    0.0000 N   0  0  0  0  0  0  0  0  0  0  0  0
   -6.0380  -10.1217    0.0000 N   0  0  0  0  0  0  0  0  0  0  0  0
   -5.2880  -11.4207    0.0000 N   0  0  0  0  0  0  0  0  0  0  0  0
   -3.7880  -11.4207    0.0000 N   0  0  0  0  0  0  0  0  0  0  0  0
    1.5937  -10.2072    0.0000 C   0  0  0  0  0  0  0  0  0  0  0  0
    1.1301   -8.7806    0.0000 O   0  0  0  0  0  0  0  0  0  0  0  0
    2.4271   -3.6073    0.0000 C   0  0  0  0  0  0  0  0  0  0  0  0
    3.9271   -3.6073    0.0000 O   0  0  0  0  0  0  0  0  0  0  0  0
    1.9635   -2.1807    0.0000 O   0  0  0  0  0  0  0  0  0  0  0  0
    0.7500   -1.2990    0.0000 C   0  0  0  0  0  0  0  0  0  0  0  0
    1.5000    0.0000    0.0000 C   0  0  0  0  0  0  0  0  0  0  0  0
    0.7500    1.2990    0.0000 C   0  0  0  0  0  0  0  0  0  0  0  0
   -0.7500    1.2990    0.0000 C   0  0  0  0  0  0  0  0  0  0  0  0
   -1.5000    0.0000    0.0000 C   0  0  0  0  0  0  0  0  0  0  0  0
   -0.7500   -1.2990    0.0000 C   0  0  0  0  0  0  0  0  0  0  0  0
   -1.9635   -2.1807    0.0000 C   0  0  0  0  0  0  0  0  0  0  0  0
   -2.9672   -1.0660    0.0000 C   0  0  0  0  0  0  0  0  0  0  0  0
   -4.4344   -1.3779    0.0000 C   0  0  0  0  0  0  0  0  0  0  0  0
   -4.8980   -2.8045    0.0000 C   0  0  0  0  0  0  0  0  0  0  0  0
   -3.8943   -3.9192    0.0000 C   0  0  0  0  0  0  0  0  0  0  0  0
   -2.4271   -3.6073    0.0000 C   0  0  0  0  0  0  0  0  0  0  0  0
  1  2  1  0
  2  3  2  0
  3  4  1  0
  4  5  2  0
  5  6  1  0
  6  7  2  0
  6  8  1  0
  8  9  1  0
  9 10  2  0
 10 11  1  0
 11 12  2  0
 12 13  1  0
 13 14  1  0
 14 15  1  0
 15 16  1  0
 16 17  1  0
 17 18  1  0
 18 19  2  0
 18 20  1  0
 20 21  1  0
 21 22  2  0
 22 23  1  0
 23 24  2  0
 24 25  1  0
 25 26  2  0
 17 27  1  0
 27 28  2  0
  5 29  1  0
 29 30  2  0
 29 31  1  0
 31 32  1  0
 32 33  2  0
 33 34  1  0
 34 35  2  0
 35 36  1  0
 36 37  2  0
 37 38  1  0
 38 39  2  0
 39 40  1  0
 40 41  2  0
 41 42  1  0
 42 43  2  0
 43  2  1  0
 13  9  1  0
 27 14  1  0
 37 32  1  0
 43 38  1  0
 26 21  1  0
M  END
>  <Title>  (415) 
idAAOAgen14

$$$$

     RDKit          2D

 10  9  0  0  0  0  0  0  0  0999 V2000
    0.0000    0.0000    0.0000 C   0  0  0  0  0  0  0  0  0  0  0  0
    1.2990    0.7500    0.0000 C   0  0  0  0  0  0  0  0  0  0  0  0
    2.5981   -0.0000    0.0000 C   0  0  0  0  0  0  0  0  0  0  0  0
    3.8971    0.7500    0.0000 C   0  0  0  0  0  0  0  0  0  0  0  0
    5.1962   -0.0000    0.0000 N   0  0  0  0  0  0  0  0  0  0  0  0
    6.4952    0.7500    0.0000 C   0  0  0  0  0  0  0  0  0  0  0  0
    6.4952    2.2500    0.0000 O   0  0  0  0  0  0  0  0  0  0  0  0
    7.7942   -0.0000    0.0000 C   0  0  0  0  0  0  0  0  0  0  0  0
    9.0933    0.7500    0.0000 C   0  0  0  0  0  0  0  0  0  0  0  0
   10.3923   -0.0000    0.0000 C   0  0  0  0  0  0  0  0  0  0  0  0
  1  2  1  0
  2  3  1  0
  3  4  1  0
  4  5  1  0
  5  6  1  0
  6  7  2  0
  6  8  1  0
  8  9  1  0
  9 10  1  0
M  END
>  <Title>  (416) 
idAAOBgen14

$$$$

     RDKit          2D

  5  4  0  0  0  0  0  0  0  0999 V2000
    0.0000    0.0000    0.0000 C   0  0  0  0  0  0  0  0  0  0  0  0
    1.2990    0.7500    0.0000 C   0  0  0  0  0  0  0  0  0  0  0  0
    2.5981   -0.0000    0.0000 C   0  0  0  0  0  0  0  0  0  0  0  0
    3.8971    0.7500    0.0000 C   0  0  0  0  0  0  0  0  0  0  0  0
    5.1962   -0.0000    0.0000 C   0  0  0  0  0  0  0  0  0  0  0  0
  1  2  2  0
  2  3  1  0
  3  4  2  3
  4  5  1  0
M  END
>  <Title>  (417) 
idAAOCgen14

$$$$

     RDKit          2D

  9  8  0  0  0  0  0  0  0  0999 V2000
    0.0000    0.0000    0.0000 C   0  0  0  0  0  0  0  0  0  0  0  0
    1.2990    0.7500    0.0000 C   0  0  0  0  0  0  0  0  0  0  0  0
    2.5981   -0.0000    0.0000 N   0  0  0  0  0  0  0  0  0  0  0  0
    3.8971    0.7500    0.0000 N   0  0  0  0  0  0  0  0  0  0  0  0
    5.1962   -0.0000    0.0000 C   0  0  0  0  0  0  0  0  0  0  0  0
    5.1962   -1.5000    0.0000 O   0  0  0  0  0  0  0  0  0  0  0  0
    6.4952    0.7500    0.0000 C   0  0  0  0  0  0  0  0  0  0  0  0
    7.7942   -0.0000    0.0000 C   0  0  0  0  0  0  0  0  0  0  0  0
    9.0933    0.7500    0.0000 C   0  0  0  0  0  0  0  0  0  0  0  0
  1  2  1  0
  2  3  2  3
  3  4  1  0
  4  5  1  0
  5  6  2  0
  5  7  1  0
  7  8  1  0
  8  9  1  0
M  END
>  <Title>  (418) 
idAAODgen14

$$$$

     RDKit          2D

 10  9  0  0  0  0  0  0  0  0999 V2000
    0.0000    0.0000    0.0000 C   0  0  0  0  0  0  0  0  0  0  0  0
    1.2990    0.7500    0.0000 C   0  0  0  0  0  0  0  0  0  0  0  0
    2.5981   -0.0000    0.0000 C   0  0  0  0  0  0  0  0  0  0  0  0
    3.8971    0.7500    0.0000 C   0  0  0  0  0  0  0  0  0  0  0  0
    5.1962   -0.0000    0.0000 N   0  0  0  0  0  0  0  0  0  0  0  0
    6.4952    0.7500    0.0000 C   0  0  0  0  0  0  0  0  0  0  0  0
    6.4952    2.2500    0.0000 O   0  0  0  0  0  0  0  0  0  0  0  0
    7.7942   -0.0000    0.0000 C   0  0  0  0  0  0  0  0  0  0  0  0
    9.0933    0.7500    0.0000 C   0  0  0  0  0  0  0  0  0  0  0  0
   10.3923   -0.0000    0.0000 C   0  0  0  0  0  0  0  0  0  0  0  0
  1  2  1  0
  2  3  1  0
  3  4  2  3
  4  5  1  0
  5  6  1  0
  6  7  2  0
  6  8  1  0
  8  9  1  0
  9 10  1  0
M  END
>  <Title>  (419) 
idAAOEgen14

$$$$

     RDKit          2D

  6  5  0  0  0  0  0  0  0  0999 V2000
    0.0000    0.0000    0.0000 C   0  0  0  0  0  0  0  0  0  0  0  0
    1.2990    0.7500    0.0000 N   0  0  0  0  0  0  0  0  0  0  0  0
    2.5981   -0.0000    0.0000 C   0  0  0  0  0  0  0  0  0  0  0  0
    3.8971    0.7500    0.0000 C   0  0  0  0  0  0  0  0  0  0  0  0
    5.1962   -0.0000    0.0000 C   0  0  0  0  0  0  0  0  0  0  0  0
    3.8971    2.2500    0.0000 C   0  0  0  0  0  0  0  0  0  0  0  0
  1  2  1  0
  2  3  1  0
  3  4  1  0
  4  5  1  0
  4  6  1  0
M  END
>  <Title>  (420) 
idAAOFgen14

$$$$

     RDKit          2D

  7  7  0  0  0  0  0  0  0  0999 V2000
    3.0000    0.0000    0.0000 C   0  0  0  0  0  0  0  0  0  0  0  0
    1.5000    0.0000    0.0000 C   0  0  0  0  0  0  0  0  0  0  0  0
    0.7500   -1.2990    0.0000 N   0  0  0  0  0  0  0  0  0  0  0  0
   -0.7500   -1.2990    0.0000 C   0  0  0  0  0  0  0  0  0  0  0  0
   -1.5000    0.0000    0.0000 C   0  0  0  0  0  0  0  0  0  0  0  0
   -0.7500    1.2990    0.0000 C   0  0  0  0  0  0  0  0  0  0  0  0
    0.7500    1.2990    0.0000 C   0  0  0  0  0  0  0  0  0  0  0  0
  1  2  1  0
  2  3  2  0
  3  4  1  0
  4  5  1  0
  5  6  1  0
  6  7  2  0
  7  2  1  0
M  END
>  <Title>  (421) 
idAAOGgen14

$$$$

     RDKit          2D

  9  8  0  0  0  0  0  0  0  0999 V2000
    0.0000    0.0000    0.0000 C   0  0  0  0  0  0  0  0  0  0  0  0
    1.2990    0.7500    0.0000 C   0  0  0  0  0  0  0  0  0  0  0  0
    2.5981   -0.0000    0.0000 C   0  0  0  0  0  0  0  0  0  0  0  0
    3.8971    0.7500    0.0000 C   0  0  0  0  0  0  0  0  0  0  0  0
    5.1962   -0.0000    0.0000 N   0  0  0  0  0  0  0  0  0  0  0  0
    6.4952    0.7500    0.0000 C   0  0  0  0  0  0  0  0  0  0  0  0
    7.7942   -0.0000    0.0000 C   0  0  0  0  0  0  0  0  0  0  0  0
    3.8971    2.2500    0.0000 O   0  0  0  0  0  0  0  0  0  0  0  0
    5.1962    3.0000    0.0000 C   0  0  0  0  0  0  0  0  0  0  0  0
  1  2  1  0
  2  3  1  0
  3  4  1  0
  4  5  1  0
  5  6  1  0
  6  7  1  0
  4  8  1  0
  8  9  1  0
M  END
>  <Title>  (422) 
idAAOHgen14

$$$$

     RDKit          2D

 11 10  0  0  0  0  0  0  0  0999 V2000
    0.0000    0.0000    0.0000 C   0  0  0  0  0  0  0  0  0  0  0  0
    1.2990    0.7500    0.0000 C   0  0  0  0  0  0  0  0  0  0  0  0
    2.5981   -0.0000    0.0000 C   0  0  0  0  0  0  0  0  0  0  0  0
    3.8971    0.7500    0.0000 N   0  0  0  0  0  0  0  0  0  0  0  0
    5.1962   -0.0000    0.0000 C   0  0  0  0  0  0  0  0  0  0  0  0
    5.1962   -1.5000    0.0000 O   0  0  0  0  0  0  0  0  0  0  0  0
    6.4952    0.7500    0.0000 C   0  0  0  0  0  0  0  0  0  0  0  0
    7.7942   -0.0000    0.0000 C   0  0  0  0  0  0  0  0  0  0  0  0
    9.0933    0.7500    0.0000 C   0  0  0  0  0  0  0  0  0  0  0  0
   10.3923   -0.0000    0.0000 C   0  0  0  0  0  0  0  0  0  0  0  0
    9.0933    2.2500    0.0000 C   0  0  0  0  0  0  0  0  0  0  0  0
  1  2  1  0
  2  3  1  0
  3  4  1  0
  4  5  1  0
  5  6  2  0
  5  7  1  0
  7  8  1  0
  8  9  1  0
  9 10  1  0
  9 11  1  0
M  END
>  <Title>  (423) 
idAAOIgen14

$$$$

     RDKit          2D

 33 37  0  0  0  0  0  0  0  0999 V2000
   -2.6401   -3.1891    0.0000 C   0  0  0  0  0  0  0  0  0  0  0  0
   -1.2135   -2.7256    0.0000 C   0  0  0  0  0  0  0  0  0  0  0  0
   -0.0000   -3.6073    0.0000 N   0  0  0  0  0  0  0  0  0  0  0  0
    1.2135   -2.7256    0.0000 C   0  0  0  0  0  0  0  0  0  0  0  0
    2.6401   -3.1891    0.0000 C   0  0  0  0  0  0  0  0  0  0  0  0
    3.7548   -2.1855    0.0000 O   0  0  0  0  0  0  0  0  0  0  0  0
    2.9520   -4.6564    0.0000 N   0  0  0  0  0  0  0  0  0  0  0  0
    4.3786   -5.1199    0.0000 C   0  0  0  0  0  0  0  0  0  0  0  0
    5.5921   -4.2382    0.0000 N   0  0  0  0  0  0  0  0  0  0  0  0
    6.8056   -5.1199    0.0000 N   0  0  0  0  0  0  0  0  0  0  0  0
    6.3421   -6.5465    0.0000 N   0  0  0  0  0  0  0  0  0  0  0  0
    4.8421   -6.5465    0.0000 N   0  0  0  0  0  0  0  0  0  0  0  0
    3.9604   -7.7600    0.0000 N   0  0  0  0  0  0  0  0  0  0  0  0
    4.4239   -9.1866    0.0000 C   0  0  0  0  0  0  0  0  0  0  0  0
    3.2104  -10.0683    0.0000 C   0  0  0  0  0  0  0  0  0  0  0  0
    1.9969   -9.1866    0.0000 C   0  0  0  0  0  0  0  0  0  0  0  0
    0.5703   -9.6501    0.0000 C   0  0  0  0  0  0  0  0  0  0  0  0
    0.2584  -11.1173    0.0000 O   0  0  0  0  0  0  0  0  0  0  0  0
   -0.5444   -8.6464    0.0000 N   0  0  0  0  0  0  0  0  0  0  0  0
   -1.9710   -9.1099    0.0000 C   0  0  0  0  0  0  0  0  0  0  0  0
   -3.0857   -8.1062    0.0000 N   0  0  0  0  0  0  0  0  0  0  0  0
   -4.5123   -8.5698    0.0000 N   0  0  0  0  0  0  0  0  0  0  0  0
   -4.8242  -10.0370    0.0000 N   0  0  0  0  0  0  0  0  0  0  0  0
   -3.7095  -11.0407    0.0000 N   0  0  0  0  0  0  0  0  0  0  0  0
   -2.2829  -10.5772    0.0000 N   0  0  0  0  0  0  0  0  0  0  0  0
    2.4604   -7.7600    0.0000 C   0  0  0  0  0  0  0  0  0  0  0  0
    1.5787   -6.5465    0.0000 O   0  0  0  0  0  0  0  0  0  0  0  0
    0.7500   -1.2990    0.0000 C   0  0  0  0  0  0  0  0  0  0  0  0
    1.5000    0.0000    0.0000 C   0  0  0  0  0  0  0  0  0  0  0  0
    0.7500    1.2990    0.0000 C   0  0  0  0  0  0  0  0  0  0  0  0
   -0.7500    1.2990    0.0000 C   0  0  0  0  0  0  0  0  0  0  0  0
   -1.5000    0.0000    0.0000 C   0  0  0  0  0  0  0  0  0  0  0  0
   -0.7500   -1.2990    0.0000 C   0  0  0  0  0  0  0  0  0  0  0  0
  1  2  1  0
  2  3  2  0
  3  4  1  0
  4  5  1  0
  5  6  2  0
  5  7  1  0
  7  8  1  0
  8  9  2  0
  9 10  1  0
 10 11  2  0
 11 12  1  0
 12 13  1  0
 13 14  1  0
 14 15  1  0
 15 16  1  0
 16 17  1  0
 17 18  2  0
 17 19  1  0
 19 20  1  0
 20 21  2  0
 21 22  1  0
 22 23  2  0
 23 24  1  0
 24 25  2  0
 16 26  1  0
 26 27  2  0
  4 28  1  0
 28 29  2  0
 29 30  1  0
 30 31  2  0
 31 32  1  0
 32 33  2  0
 33  2  1  0
 12  8  1  0
 26 13  1  0
 33 28  1  0
 25 20  1  0
M  END
>  <Title>  (424) 
idAAOJgen14

$$$$

     RDKit          2D

 29 32  0  0  0  0  0  0  0  0999 V2000
   -3.0000   -2.5981    0.0000 C   0  0  0  0  0  0  0  0  0  0  0  0
   -1.5000   -2.5981    0.0000 C   0  0  0  0  0  0  0  0  0  0  0  0
   -0.7500   -3.8971    0.0000 C   0  0  0  0  0  0  0  0  0  0  0  0
    0.7500   -3.8971    0.0000 C   0  0  0  0  0  0  0  0  0  0  0  0
    1.5000   -2.5981    0.0000 C   0  0  0  0  0  0  0  0  0  0  0  0
    3.0000   -2.5981    0.0000 C   0  0  0  0  0  0  0  0  0  0  0  0
    3.7500   -1.2990    0.0000 O   0  0  0  0  0  0  0  0  0  0  0  0
    3.7500   -3.8971    0.0000 N   0  0  0  0  0  0  0  0  0  0  0  0
    5.2500   -3.8971    0.0000 N   0  0  0  0  0  0  0  0  0  0  0  0
    6.1317   -2.6836    0.0000 C   0  0  0  0  0  0  0  0  0  0  0  0
    7.5583   -3.1471    0.0000 C   0  0  0  0  0  0  0  0  0  0  0  0
    7.5583   -4.6471    0.0000 N   0  0  0  0  0  0  0  0  0  0  0  0
    8.7718   -5.5288    0.0000 C   0  0  0  0  0  0  0  0  0  0  0  0
   10.1421   -4.9187    0.0000 O   0  0  0  0  0  0  0  0  0  0  0  0
    8.6150   -7.0206    0.0000 N   0  0  0  0  0  0  0  0  0  0  0  0
    9.8285   -7.9023    0.0000 C   0  0  0  0  0  0  0  0  0  0  0  0
    9.6717   -9.3940    0.0000 N   0  0  0  0  0  0  0  0  0  0  0  0
   10.8853  -10.2757    0.0000 N   0  0  0  0  0  0  0  0  0  0  0  0
   12.2556   -9.6656    0.0000 N   0  0  0  0  0  0  0  0  0  0  0  0
   12.4124   -8.1738    0.0000 N   0  0  0  0  0  0  0  0  0  0  0  0
   11.1988   -7.2921    0.0000 N   0  0  0  0  0  0  0  0  0  0  0  0
    6.1317   -5.1106    0.0000 C   0  0  0  0  0  0  0  0  0  0  0  0
    5.6682   -6.5372    0.0000 O   0  0  0  0  0  0  0  0  0  0  0  0
    0.7500   -1.2990    0.0000 C   0  0  0  0  0  0  0  0  0  0  0  0
    1.5000    0.0000    0.0000 C   0  0  0  0  0  0  0  0  0  0  0  0
    0.7500    1.2990    0.0000 C   0  0  0  0  0  0  0  0  0  0  0  0
   -0.7500    1.2990    0.0000 C   0  0  0  0  0  0  0  0  0  0  0  0
   -1.5000    0.0000    0.0000 C   0  0  0  0  0  0  0  0  0  0  0  0
   -0.7500   -1.2990    0.0000 C   0  0  0  0  0  0  0  0  0  0  0  0
  1  2  1  0
  2  3  1  0
  3  4  2  0
  4  5  1  0
  5  6  1  0
  6  7  2  0
  6  8  1  0
  8  9  1  0
  9 10  1  0
 10 11  1  0
 11 12  1  0
 12 13  1  0
 13 14  2  0
 13 15  1  0
 15 16  1  0
 16 17  2  0
 17 18  1  0
 18 19  2  0
 19 20  1  0
 20 21  2  0
 12 22  1  0
 22 23  2  0
  5 24  1  0
 24 25  2  0
 25 26  1  0
 26 27  2  0
 27 28  1  0
 28 29  2  0
 29  2  1  0
 22  9  1  0
 29 24  1  0
 21 16  1  0
M  END
>  <Title>  (425) 
idAAOKgen14

$$$$

     RDKit          2D

 12 12  0  0  0  0  0  0  0  0999 V2000
    5.4786   -1.2990    0.0000 C   0  0  0  0  0  0  0  0  0  0  0  0
    3.9786   -1.2990    0.0000 C   0  0  0  0  0  0  0  0  0  0  0  0
    3.2286   -2.5981    0.0000 O   0  0  0  0  0  0  0  0  0  0  0  0
    3.2286   -0.0000    0.0000 N   0  0  0  0  0  0  0  0  0  0  0  0
    1.7286    0.0000    0.0000 C   0  0  0  0  0  0  0  0  0  0  0  0
    1.0777    1.3515    0.0000 C   0  0  0  0  0  0  0  0  0  0  0  0
   -0.3846    1.6852    0.0000 C   0  0  0  0  0  0  0  0  0  0  0  0
   -1.5574    0.7500    0.0000 C   0  0  0  0  0  0  0  0  0  0  0  0
   -1.5574   -0.7500    0.0000 C   0  0  0  0  0  0  0  0  0  0  0  0
   -0.3846   -1.6852    0.0000 C   0  0  0  0  0  0  0  0  0  0  0  0
   -0.7184   -3.1476    0.0000 F   0  0  0  0  0  0  0  0  0  0  0  0
    1.0777   -1.3515    0.0000 C   0  0  0  0  0  0  0  0  0  0  0  0
  1  2  1  0
  2  3  2  0
  2  4  1  0
  4  5  1  0
  5  6  2  0
  6  7  1  0
  7  8  2  0
  8  9  1  0
  9 10  1  0
 10 11  1  0
 10 12  1  0
 12  5  1  0
M  END
>  <Title>  (426) 
idAAOLgen14

$$$$

     RDKit          2D

  6  6  0  0  0  0  0  0  0  0999 V2000
    2.7760    0.0000    0.0000 C   0  0  0  0  0  0  0  0  0  0  0  0
    1.2760    0.0000    0.0000 C   0  0  0  0  0  0  0  0  0  0  0  0
    0.3943    1.2135    0.0000 C   0  0  0  0  0  0  0  0  0  0  0  0
   -1.0323    0.7500    0.0000 C   0  0  0  0  0  0  0  0  0  0  0  0
   -1.0323   -0.7500    0.0000 C   0  0  0  0  0  0  0  0  0  0  0  0
    0.3943   -1.2135    0.0000 C   0  0  0  0  0  0  0  0  0  0  0  0
  1  2  1  0
  2  3  2  0
  3  4  1  0
  4  5  1  0
  5  6  2  0
  6  2  1  0
M  END
>  <Title>  (427) 
idAAOMgen14

$$$$

     RDKit          2D

 16 17  0  0  0  0  0  0  0  0999 V2000
    3.0000   -5.1962    0.0000 O   0  0  0  0  0  0  0  0  0  0  0  0
    1.5000   -5.1962    0.0000 C   0  0  0  0  0  0  0  0  0  0  0  0
    0.7500   -6.4952    0.0000 C   0  0  0  0  0  0  0  0  0  0  0  0
    1.5000   -7.7942    0.0000 C   0  0  0  0  0  0  0  0  0  0  0  0
    2.9918   -7.9510    0.0000 C   0  0  0  0  0  0  0  0  0  0  0  0
    3.3037   -9.4182    0.0000 C   0  0  0  0  0  0  0  0  0  0  0  0
    2.0046  -10.1682    0.0000 C   0  0  0  0  0  0  0  0  0  0  0  0
    0.8899   -9.1645    0.0000 C   0  0  0  0  0  0  0  0  0  0  0  0
    0.7500   -3.8971    0.0000 N   0  0  0  0  0  0  0  0  0  0  0  0
    1.5000   -2.5981    0.0000 C   0  0  0  0  0  0  0  0  0  0  0  0
    0.7500   -1.2990    0.0000 C   0  0  0  0  0  0  0  0  0  0  0  0
    1.5000    0.0000    0.0000 C   0  0  0  0  0  0  0  0  0  0  0  0
    0.7500    1.2990    0.0000 C   0  0  0  0  0  0  0  0  0  0  0  0
   -0.7500    1.2990    0.0000 C   0  0  0  0  0  0  0  0  0  0  0  0
   -1.5000    0.0000    0.0000 N   0  0  0  0  0  0  0  0  0  0  0  0
   -0.7500   -1.2990    0.0000 C   0  0  0  0  0  0  0  0  0  0  0  0
  1  2  1  0
  2  3  1  0
  3  4  1  0
  4  5  2  0
  5  6  1  0
  6  7  1  0
  7  8  2  0
  2  9  1  0
  9 10  1  0
 10 11  1  0
 11 12  2  0
 12 13  1  0
 13 14  2  0
 14 15  1  0
 15 16  2  0
  8  4  1  0
 16 11  1  0
M  END
>  <Title>  (428) 
idAAONgen14

$$$$

     RDKit          2D

  6  5  0  0  0  0  0  0  0  0999 V2000
    0.0000    0.0000    0.0000 C   0  0  0  0  0  0  0  0  0  0  0  0
    1.2990    0.7500    0.0000 C   0  0  0  0  0  0  0  0  0  0  0  0
    2.5981   -0.0000    0.0000 C   0  0  0  0  0  0  0  0  0  0  0  0
    3.8971    0.7500    0.0000 C   0  0  0  0  0  0  0  0  0  0  0  0
    2.5981   -1.5000    0.0000 O   0  0  0  0  0  0  0  0  0  0  0  0
    3.8971   -2.2500    0.0000 C   0  0  0  0  0  0  0  0  0  0  0  0
  1  2  1  0
  2  3  1  0
  3  4  1  0
  3  5  1  0
  5  6  1  0
M  END
>  <Title>  (429) 
idAAOOgen14

$$$$

     RDKit          2D

 12 12  0  0  0  0  0  0  0  0999 V2000
    7.5000   -0.0000    0.0000 C   0  0  0  0  0  0  0  0  0  0  0  0
    6.0000    0.0000    0.0000 C   0  0  0  0  0  0  0  0  0  0  0  0
    5.2500   -1.2990    0.0000 C   0  0  0  0  0  0  0  0  0  0  0  0
    6.0000   -2.5981    0.0000 C   0  0  0  0  0  0  0  0  0  0  0  0
    3.7500   -1.2990    0.0000 N   0  0  0  0  0  0  0  0  0  0  0  0
    3.0000    0.0000    0.0000 C   0  0  0  0  0  0  0  0  0  0  0  0
    1.5000    0.0000    0.0000 C   0  0  0  0  0  0  0  0  0  0  0  0
    0.7500   -1.2990    0.0000 C   0  0  0  0  0  0  0  0  0  0  0  0
   -0.7500   -1.2990    0.0000 C   0  0  0  0  0  0  0  0  0  0  0  0
   -1.5000    0.0000    0.0000 C   0  0  0  0  0  0  0  0  0  0  0  0
   -0.7500    1.2990    0.0000 N   0  0  0  0  0  0  0  0  0  0  0  0
    0.7500    1.2990    0.0000 C   0  0  0  0  0  0  0  0  0  0  0  0
  1  2  1  0
  2  3  1  0
  3  4  1  0
  3  5  1  0
  5  6  1  0
  6  7  1  0
  7  8  2  0
  8  9  1  0
  9 10  2  0
 10 11  1  0
 11 12  2  0
 12  7  1  0
M  END
>  <Title>  (430) 
idAAOPgen14

$$$$

     RDKit          2D

  8  8  0  0  0  0  0  0  0  0999 V2000
    5.7760   -0.0000    0.0000 C   0  0  0  0  0  0  0  0  0  0  0  0
    4.2760   -0.0000    0.0000 C   0  0  0  0  0  0  0  0  0  0  0  0
    2.7760    0.0000    0.0000 C   0  0  0  0  0  0  0  0  0  0  0  0
    1.2760    0.0000    0.0000 C   0  0  0  0  0  0  0  0  0  0  0  0
    0.3943    1.2135    0.0000 C   0  0  0  0  0  0  0  0  0  0  0  0
   -1.0323    0.7500    0.0000 C   0  0  0  0  0  0  0  0  0  0  0  0
   -1.0323   -0.7500    0.0000 C   0  0  0  0  0  0  0  0  0  0  0  0
    0.3943   -1.2135    0.0000 N   0  0  0  0  0  0  0  0  0  0  0  0
  1  2  1  0
  2  3  3  0
  3  4  1  0
  4  5  2  0
  5  6  1  0
  6  7  1  0
  7  8  2  0
  8  4  1  0
M  END
>  <Title>  (431) 
idAAOQgen14

$$$$

     RDKit          2D

 11 11  0  0  0  0  0  0  0  0999 V2000
    7.5000    0.0000    0.0000 C   0  0  0  0  0  0  0  0  0  0  0  0
    6.0000    0.0000    0.0000 C   0  0  0  0  0  0  0  0  0  0  0  0
    4.5000    0.0000    0.0000 C   0  0  0  0  0  0  0  0  0  0  0  0
    3.0000    0.0000    0.0000 C   0  0  0  0  0  0  0  0  0  0  0  0
    1.5000    0.0000    0.0000 C   0  0  0  0  0  0  0  0  0  0  0  0
    0.7500   -1.2990    0.0000 C   0  0  0  0  0  0  0  0  0  0  0  0
   -0.7500   -1.2990    0.0000 O   0  0  0  0  0  0  0  0  0  0  0  0
   -1.5000    0.0000    0.0000 C   0  0  0  0  0  0  0  0  0  0  0  0
   -3.0000    0.0000    0.0000 O   0  0  0  0  0  0  0  0  0  0  0  0
   -0.7500    1.2990    0.0000 C   0  0  0  0  0  0  0  0  0  0  0  0
    0.7500    1.2990    0.0000 C   0  0  0  0  0  0  0  0  0  0  0  0
  1  2  3  0
  2  3  1  0
  3  4  3  0
  4  5  1  0
  5  6  2  0
  6  7  1  0
  7  8  1  0
  8  9  1  0
  8 10  1  0
 10 11  2  0
 11  5  1  0
M  END
>  <Title>  (432) 
idAAORgen14

$$$$

     RDKit          2D

 36 40  0  0  0  0  0  0  0  0999 V2000
   -4.1679   -3.2376    0.0000 C   0  0  0  0  0  0  0  0  0  0  0  0
   -3.1476   -2.1380    0.0000 C   0  0  0  0  0  0  0  0  0  0  0  0
   -1.6852   -2.4718    0.0000 C   0  0  0  0  0  0  0  0  0  0  0  0
   -1.3515   -3.9342    0.0000 C   0  0  0  0  0  0  0  0  0  0  0  0
   -0.0000   -4.5850    0.0000 C   0  0  0  0  0  0  0  0  0  0  0  0
    1.3515   -3.9342    0.0000 C   0  0  0  0  0  0  0  0  0  0  0  0
    1.6852   -2.4718    0.0000 C   0  0  0  0  0  0  0  0  0  0  0  0
    3.1476   -2.1380    0.0000 C   0  0  0  0  0  0  0  0  0  0  0  0
    3.5898   -0.7046    0.0000 O   0  0  0  0  0  0  0  0  0  0  0  0
    4.1679   -3.2376    0.0000 N   0  0  0  0  0  0  0  0  0  0  0  0
    5.6303   -2.9038    0.0000 C   0  0  0  0  0  0  0  0  0  0  0  0
    6.2198   -1.5245    0.0000 N   0  0  0  0  0  0  0  0  0  0  0  0
    7.7138   -1.6590    0.0000 N   0  0  0  0  0  0  0  0  0  0  0  0
    8.0476   -3.1214    0.0000 N   0  0  0  0  0  0  0  0  0  0  0  0
    6.7599   -3.8907    0.0000 N   0  0  0  0  0  0  0  0  0  0  0  0
    6.6254   -5.3847    0.0000 C   0  0  0  0  0  0  0  0  0  0  0  0
    7.7550   -6.3716    0.0000 C   0  0  0  0  0  0  0  0  0  0  0  0
    7.1655   -7.7509    0.0000 C   0  0  0  0  0  0  0  0  0  0  0  0
    5.6715   -7.6164    0.0000 C   0  0  0  0  0  0  0  0  0  0  0  0
    4.6846   -8.7460    0.0000 C   0  0  0  0  0  0  0  0  0  0  0  0
    5.1694  -10.1655    0.0000 O   0  0  0  0  0  0  0  0  0  0  0  0
    3.2129   -8.4561    0.0000 N   0  0  0  0  0  0  0  0  0  0  0  0
    2.2260   -9.5857    0.0000 C   0  0  0  0  0  0  0  0  0  0  0  0
    0.7543   -9.2959    0.0000 N   0  0  0  0  0  0  0  0  0  0  0  0
   -0.2326  -10.4255    0.0000 N   0  0  0  0  0  0  0  0  0  0  0  0
    0.2522  -11.8450    0.0000 N   0  0  0  0  0  0  0  0  0  0  0  0
    1.7239  -12.1348    0.0000 N   0  0  0  0  0  0  0  0  0  0  0  0
    2.7108  -11.0052    0.0000 N   0  0  0  0  0  0  0  0  0  0  0  0
    5.3378   -6.1540    0.0000 C   0  0  0  0  0  0  0  0  0  0  0  0
    3.9585   -5.5645    0.0000 O   0  0  0  0  0  0  0  0  0  0  0  0
    0.7500   -1.2990    0.0000 C   0  0  0  0  0  0  0  0  0  0  0  0
    1.5000    0.0000    0.0000 C   0  0  0  0  0  0  0  0  0  0  0  0
    0.7500    1.2990    0.0000 C   0  0  0  0  0  0  0  0  0  0  0  0
   -0.7500    1.2990    0.0000 C   0  0  0  0  0  0  0  0  0  0  0  0
   -1.5000    0.0000    0.0000 C   0  0  0  0  0  0  0  0  0  0  0  0
   -0.7500   -1.2990    0.0000 C   0  0  0  0  0  0  0  0  0  0  0  0
  1  2  1  0
  2  3  1  0
  3  4  2  0
  4  5  1  0
  5  6  2  0
  6  7  1  0
  7  8  1  0
  8  9  2  0
  8 10  1  0
 10 11  1  0
 11 12  2  0
 12 13  1  0
 13 14  2  0
 14 15  1  0
 15 16  1  0
 16 17  2  0
 17 18  1  0
 18 19  2  0
 19 20  1  0
 20 21  2  0
 20 22  1  0
 22 23  1  0
 23 24  2  0
 24 25  1  0
 25 26  2  0
 26 27  1  0
 27 28  2  0
 19 29  1  0
 29 30  2  0
  7 31  1  0
 31 32  2  0
 32 33  1  0
 33 34  2  0
 34 35  1  0
 35 36  2  0
 36  3  1  0
 15 11  1  0
 29 16  1  0
 36 31  1  0
 28 23  1  0
M  END
>  <Title>  (433) 
idAAOSgen14

$$$$

     RDKit          2D

 36 40  0  0  0  0  0  0  0  0999 V2000
   -5.2500   -3.8971    0.0000 C   0  0  0  0  0  0  0  0  0  0  0  0
   -3.7500   -3.8971    0.0000 C   0  0  0  0  0  0  0  0  0  0  0  0
   -3.0000   -2.5981    0.0000 C   0  0  0  0  0  0  0  0  0  0  0  0
   -1.5000   -2.5981    0.0000 C   0  0  0  0  0  0  0  0  0  0  0  0
   -0.7500   -3.8971    0.0000 C   0  0  0  0  0  0  0  0  0  0  0  0
    0.7500   -3.8971    0.0000 C   0  0  0  0  0  0  0  0  0  0  0  0
    1.5000   -2.5981    0.0000 C   0  0  0  0  0  0  0  0  0  0  0  0
    3.0000   -2.5981    0.0000 C   0  0  0  0  0  0  0  0  0  0  0  0
    3.7500   -1.2990    0.0000 O   0  0  0  0  0  0  0  0  0  0  0  0
    3.7500   -3.8971    0.0000 N   0  0  0  0  0  0  0  0  0  0  0  0
    5.2500   -3.8971    0.0000 C   0  0  0  0  0  0  0  0  0  0  0  0
    6.1317   -2.6836    0.0000 N   0  0  0  0  0  0  0  0  0  0  0  0
    7.5583   -3.1471    0.0000 N   0  0  0  0  0  0  0  0  0  0  0  0
    7.5583   -4.6471    0.0000 N   0  0  0  0  0  0  0  0  0  0  0  0
    6.1317   -5.1106    0.0000 N   0  0  0  0  0  0  0  0  0  0  0  0
    5.6682   -6.5372    0.0000 N   0  0  0  0  0  0  0  0  0  0  0  0
    6.5498   -7.7508    0.0000 C   0  0  0  0  0  0  0  0  0  0  0  0
    5.6682   -8.9643    0.0000 C   0  0  0  0  0  0  0  0  0  0  0  0
    4.2416   -8.5008    0.0000 C   0  0  0  0  0  0  0  0  0  0  0  0
    3.0280   -9.3824    0.0000 C   0  0  0  0  0  0  0  0  0  0  0  0
    3.1848  -10.8742    0.0000 O   0  0  0  0  0  0  0  0  0  0  0  0
    1.6577   -8.7723    0.0000 N   0  0  0  0  0  0  0  0  0  0  0  0
    0.4442   -9.6540    0.0000 C   0  0  0  0  0  0  0  0  0  0  0  0
   -0.9261   -9.0439    0.0000 N   0  0  0  0  0  0  0  0  0  0  0  0
   -2.1396   -9.9256    0.0000 N   0  0  0  0  0  0  0  0  0  0  0  0
   -1.9829  -11.4174    0.0000 N   0  0  0  0  0  0  0  0  0  0  0  0
   -0.6125  -12.0275    0.0000 N   0  0  0  0  0  0  0  0  0  0  0  0
    0.6010  -11.1458    0.0000 N   0  0  0  0  0  0  0  0  0  0  0  0
    4.2416   -7.0008    0.0000 C   0  0  0  0  0  0  0  0  0  0  0  0
    3.0280   -6.1191    0.0000 O   0  0  0  0  0  0  0  0  0  0  0  0
    0.7500   -1.2990    0.0000 C   0  0  0  0  0  0  0  0  0  0  0  0
    1.5000    0.0000    0.0000 C   0  0  0  0  0  0  0  0  0  0  0  0
    0.7500    1.2990    0.0000 C   0  0  0  0  0  0  0  0  0  0  0  0
   -0.7500    1.2990    0.0000 C   0  0  0  0  0  0  0  0  0  0  0  0
   -1.5000    0.0000    0.0000 C   0  0  0  0  0  0  0  0  0  0  0  0
   -0.7500   -1.2990    0.0000 C   0  0  0  0  0  0  0  0  0  0  0  0
  1  2  2  0
  2  3  1  0
  3  4  1  0
  4  5  2  0
  5  6  1  0
  6  7  2  0
  7  8  1  0
  8  9  2  0
  8 10  1  0
 10 11  1  0
 11 12  2  0
 12 13  1  0
 13 14  2  0
 14 15  1  0
 15 16  1  0
 16 17  1  0
 17 18  1  0
 18 19  1  0
 19 20  1  0
 20 21  2  0
 20 22  1  0
 22 23  1  0
 23 24  2  0
 24 25  1  0
 25 26  2  0
 26 27  1  0
 27 28  2  0
 19 29  1  0
 29 30  2  0
  7 31  1  0
 31 32  2  0
 32 33  1  0
 33 34  2  0
 34 35  1  0
 35 36  2  0
 36  4  1  0
 15 11  1  0
 29 16  1  0
 36 31  1  0
 28 23  1  0
M  END
>  <Title>  (434) 
idAAOTgen14

$$$$

     RDKit          2D

 34 38  0  0  0  0  0  0  0  0999 V2000
   -3.0000   -2.5981    0.0000 C   0  0  0  0  0  0  0  0  0  0  0  0
   -1.5000   -2.5981    0.0000 C   0  0  0  0  0  0  0  0  0  0  0  0
   -0.7500   -3.8971    0.0000 C   0  0  0  0  0  0  0  0  0  0  0  0
    0.7500   -3.8971    0.0000 C   0  0  0  0  0  0  0  0  0  0  0  0
    1.5000   -2.5981    0.0000 C   0  0  0  0  0  0  0  0  0  0  0  0
    3.0000   -2.5981    0.0000 C   0  0  0  0  0  0  0  0  0  0  0  0
    3.7500   -1.2990    0.0000 O   0  0  0  0  0  0  0  0  0  0  0  0
    3.7500   -3.8971    0.0000 N   0  0  0  0  0  0  0  0  0  0  0  0
    5.2500   -3.8971    0.0000 C   0  0  0  0  0  0  0  0  0  0  0  0
    6.1317   -2.6836    0.0000 N   0  0  0  0  0  0  0  0  0  0  0  0
    7.5583   -3.1471    0.0000 N   0  0  0  0  0  0  0  0  0  0  0  0
    7.5583   -4.6471    0.0000 N   0  0  0  0  0  0  0  0  0  0  0  0
    6.1317   -5.1106    0.0000 N   0  0  0  0  0  0  0  0  0  0  0  0
    5.6682   -6.5372    0.0000 C   0  0  0  0  0  0  0  0  0  0  0  0
    6.5498   -7.7508    0.0000 C   0  0  0  0  0  0  0  0  0  0  0  0
    5.6682   -8.9643    0.0000 C   0  0  0  0  0  0  0  0  0  0  0  0
    4.2416   -8.5008    0.0000 C   0  0  0  0  0  0  0  0  0  0  0  0
    3.0280   -9.3824    0.0000 C   0  0  0  0  0  0  0  0  0  0  0  0
    3.1848  -10.8742    0.0000 O   0  0  0  0  0  0  0  0  0  0  0  0
    1.6577   -8.7723    0.0000 N   0  0  0  0  0  0  0  0  0  0  0  0
    0.4442   -9.6540    0.0000 C   0  0  0  0  0  0  0  0  0  0  0  0
   -0.9261   -9.0439    0.0000 N   0  0  0  0  0  0  0  0  0  0  0  0
   -2.1396   -9.9256    0.0000 N   0  0  0  0  0  0  0  0  0  0  0  0
   -1.9829  -11.4174    0.0000 N   0  0  0  0  0  0  0  0  0  0  0  0
   -0.6125  -12.0275    0.0000 N   0  0  0  0  0  0  0  0  0  0  0  0
    0.6010  -11.1458    0.0000 N   0  0  0  0  0  0  0  0  0  0  0  0
    4.2416   -7.0008    0.0000 C   0  0  0  0  0  0  0  0  0  0  0  0
    3.0280   -6.1191    0.0000 O   0  0  0  0  0  0  0  0  0  0  0  0
    0.7500   -1.2990    0.0000 C   0  0  0  0  0  0  0  0  0  0  0  0
    1.5000    0.0000    0.0000 C   0  0  0  0  0  0  0  0  0  0  0  0
    0.7500    1.2990    0.0000 C   0  0  0  0  0  0  0  0  0  0  0  0
   -0.7500    1.2990    0.0000 C   0  0  0  0  0  0  0  0  0  0  0  0
   -1.5000    0.0000    0.0000 C   0  0  0  0  0  0  0  0  0  0  0  0
   -0.7500   -1.2990    0.0000 C   0  0  0  0  0  0  0  0  0  0  0  0
  1  2  1  0
  2  3  2  0
  3  4  1  0
  4  5  1  0
  5  6  1  0
  6  7  2  0
  6  8  1  0
  8  9  1  0
  9 10  2  0
 10 11  1  0
 11 12  2  0
 12 13  1  0
 13 14  1  0
 14 15  2  0
 15 16  1  0
 16 17  2  0
 17 18  1  0
 18 19  2  0
 18 20  1  0
 20 21  1  0
 21 22  2  0
 22 23  1  0
 23 24  2  0
 24 25  1  0
 25 26  2  0
 17 27  1  0
 27 28  2  0
  5 29  1  0
 29 30  2  0
 30 31  1  0
 31 32  2  0
 32 33  1  0
 33 34  2  0
 34  2  1  0
 13  9  1  0
 27 14  1  0
 34 29  1  0
 26 21  1  0
M  END
>  <Title>  (435) 
idAAOUgen14

$$$$

     RDKit          2D

 36 40  0  0  0  0  0  0  0  0999 V2000
   -5.2500   -3.8971    0.0000 C   0  0  0  0  0  0  0  0  0  0  0  0
   -3.7500   -3.8971    0.0000 C   0  0  0  0  0  0  0  0  0  0  0  0
   -3.0000   -2.5981    0.0000 C   0  0  0  0  0  0  0  0  0  0  0  0
   -1.5000   -2.5981    0.0000 C   0  0  0  0  0  0  0  0  0  0  0  0
   -0.7500   -3.8971    0.0000 C   0  0  0  0  0  0  0  0  0  0  0  0
    0.7500   -3.8971    0.0000 C   0  0  0  0  0  0  0  0  0  0  0  0
    1.5000   -2.5981    0.0000 C   0  0  0  0  0  0  0  0  0  0  0  0
    3.0000   -2.5981    0.0000 C   0  0  0  0  0  0  0  0  0  0  0  0
    3.7500   -1.2990    0.0000 O   0  0  0  0  0  0  0  0  0  0  0  0
    3.7500   -3.8971    0.0000 N   0  0  0  0  0  0  0  0  0  0  0  0
    5.2500   -3.8971    0.0000 C   0  0  0  0  0  0  0  0  0  0  0  0
    6.1317   -2.6836    0.0000 N   0  0  0  0  0  0  0  0  0  0  0  0
    7.5583   -3.1471    0.0000 N   0  0  0  0  0  0  0  0  0  0  0  0
    7.5583   -4.6471    0.0000 N   0  0  0  0  0  0  0  0  0  0  0  0
    6.1317   -5.1106    0.0000 N   0  0  0  0  0  0  0  0  0  0  0  0
    5.6682   -6.5372    0.0000 C   0  0  0  0  0  0  0  0  0  0  0  0
    6.5498   -7.7508    0.0000 C   0  0  0  0  0  0  0  0  0  0  0  0
    5.6682   -8.9643    0.0000 C   0  0  0  0  0  0  0  0  0  0  0  0
    4.2416   -8.5008    0.0000 C   0  0  0  0  0  0  0  0  0  0  0  0
    3.0280   -9.3824    0.0000 C   0  0  0  0  0  0  0  0  0  0  0  0
    3.1848  -10.8742    0.0000 O   0  0  0  0  0  0  0  0  0  0  0  0
    1.6577   -8.7723    0.0000 N   0  0  0  0  0  0  0  0  0  0  0  0
    0.4442   -9.6540    0.0000 C   0  0  0  0  0  0  0  0  0  0  0  0
   -0.9261   -9.0439    0.0000 N   0  0  0  0  0  0  0  0  0  0  0  0
   -2.1396   -9.9256    0.0000 N   0  0  0  0  0  0  0  0  0  0  0  0
   -1.9829  -11.4174    0.0000 N   0  0  0  0  0  0  0  0  0  0  0  0
   -0.6125  -12.0275    0.0000 N   0  0  0  0  0  0  0  0  0  0  0  0
    0.6010  -11.1458    0.0000 N   0  0  0  0  0  0  0  0  0  0  0  0
    4.2416   -7.0008    0.0000 C   0  0  0  0  0  0  0  0  0  0  0  0
    3.0280   -6.1191    0.0000 O   0  0  0  0  0  0  0  0  0  0  0  0
    0.7500   -1.2990    0.0000 C   0  0  0  0  0  0  0  0  0  0  0  0
    1.5000    0.0000    0.0000 C   0  0  0  0  0  0  0  0  0  0  0  0
    0.7500    1.2990    0.0000 C   0  0  0  0  0  0  0  0  0  0  0  0
   -0.7500    1.2990    0.0000 C   0  0  0  0  0  0  0  0  0  0  0  0
   -1.5000    0.0000    0.0000 C   0  0  0  0  0  0  0  0  0  0  0  0
   -0.7500   -1.2990    0.0000 C   0  0  0  0  0  0  0  0  0  0  0  0
  1  2  1  0
  2  3  1  0
  3  4  1  0
  4  5  1  0
  5  6  2  0
  6  7  1  0
  7  8  1  0
  8  9  2  0
  8 10  1  0
 10 11  1  0
 11 12  2  0
 12 13  1  0
 13 14  2  0
 14 15  1  0
 15 16  1  0
 16 17  2  0
 17 18  1  0
 18 19  2  0
 19 20  1  0
 20 21  2  0
 20 22  1  0
 22 23  1  0
 23 24  2  0
 24 25  1  0
 25 26  2  0
 26 27  1  0
 27 28  2  0
 19 29  1  0
 29 30  2  0
  7 31  1  0
 31 32  2  0
 32 33  1  0
 33 34  2  0
 34 35  1  0
 35 36  2  0
 36  4  1  0
 15 11  1  0
 29 16  1  0
 36 31  1  0
 28 23  1  0
M  END
>  <Title>  (436) 
idAAOVgen14

$$$$

     RDKit          2D

  7  6  0  0  0  0  0  0  0  0999 V2000
    0.0000    0.0000    0.0000 C   0  0  0  0  0  0  0  0  0  0  0  0
    1.2990    0.7500    0.0000 C   0  0  0  0  0  0  0  0  0  0  0  0
    2.5981   -0.0000    0.0000 C   0  0  0  0  0  0  0  0  0  0  0  0
    3.8971    0.7500    0.0000 C   0  0  0  0  0  0  0  0  0  0  0  0
    5.1962   -0.0000    0.0000 C   0  0  0  0  0  0  0  0  0  0  0  0
    3.8971    2.2500    0.0000 N   0  0  0  0  0  0  0  0  0  0  0  0
    5.1962    3.0000    0.0000 C   0  0  0  0  0  0  0  0  0  0  0  0
  1  2  2  0
  2  3  1  0
  3  4  1  0
  4  5  1  0
  4  6  1  0
  6  7  1  0
M  END
>  <Title>  (437) 
idAAOWgen14

$$$$

     RDKit          2D

  6  5  0  0  0  0  0  0  0  0999 V2000
    0.0000    0.0000    0.0000 C   0  0  0  0  0  0  0  0  0  0  0  0
    1.2990    0.7500    0.0000 N   0  0  0  0  0  0  0  0  0  0  0  0
    2.5981   -0.0000    0.0000 C   0  0  0  0  0  0  0  0  0  0  0  0
    3.8971    0.7500    0.0000 C   0  0  0  0  0  0  0  0  0  0  0  0
    2.5981   -1.5000    0.0000 O   0  0  0  0  0  0  0  0  0  0  0  0
    3.8971   -2.2500    0.0000 C   0  0  0  0  0  0  0  0  0  0  0  0
  1  2  1  0
  2  3  1  0
  3  4  1  0
  3  5  1  0
  5  6  1  0
M  END
>  <Title>  (438) 
idAAOXgen14

$$$$

     RDKit          2D

  8  7  0  0  0  0  0  0  0  0999 V2000
    0.0000    0.0000    0.0000 C   0  0  0  0  0  0  0  0  0  0  0  0
    1.2990    0.7500    0.0000 C   0  0  0  0  0  0  0  0  0  0  0  0
    2.5981   -0.0000    0.0000 C   0  0  0  0  0  0  0  0  0  0  0  0
    1.2990    2.2500    0.0000 C   0  0  0  0  0  0  0  0  0  0  0  0
    2.5981    3.0000    0.0000 C   0  0  0  0  0  0  0  0  0  0  0  0
    2.5981    4.5000    0.0000 C   0  0  0  0  0  0  0  0  0  0  0  0
    3.8971    5.2500    0.0000 C   0  0  0  0  0  0  0  0  0  0  0  0
    5.1962    6.0000    0.0000 N   0  0  0  0  0  0  0  0  0  0  0  0
  1  2  1  0
  2  3  1  0
  2  4  1  0
  4  5  1  0
  5  6  1  0
  6  7  1  0
  7  8  3  0
M  END
>  <Title>  (439) 
idAAOYgen14

$$$$

     RDKit          2D

 14 14  0  0  0  0  0  0  0  0999 V2000
    5.2500   -6.4952    0.0000 C   0  0  0  0  0  0  0  0  0  0  0  0
    6.0000   -5.1962    0.0000 C   0  0  0  0  0  0  0  0  0  0  0  0
    5.2500   -3.8971    0.0000 C   0  0  0  0  0  0  0  0  0  0  0  0
    6.0000   -2.5981    0.0000 C   0  0  0  0  0  0  0  0  0  0  0  0
    7.5000   -2.5981    0.0000 C   0  0  0  0  0  0  0  0  0  0  0  0
    5.2500   -1.2990    0.0000 C   0  0  0  0  0  0  0  0  0  0  0  0
    3.7500   -1.2990    0.0000 C   0  0  0  0  0  0  0  0  0  0  0  0
    3.0000    0.0000    0.0000 C   0  0  0  0  0  0  0  0  0  0  0  0
    1.5000    0.0000    0.0000 C   0  0  0  0  0  0  0  0  0  0  0  0
    0.7500   -1.2990    0.0000 C   0  0  0  0  0  0  0  0  0  0  0  0
   -0.7500   -1.2990    0.0000 C   0  0  0  0  0  0  0  0  0  0  0  0
   -1.5000    0.0000    0.0000 C   0  0  0  0  0  0  0  0  0  0  0  0
   -0.7500    1.2990    0.0000 N   0  0  0  0  0  0  0  0  0  0  0  0
    0.7500    1.2990    0.0000 C   0  0  0  0  0  0  0  0  0  0  0  0
  1  2  1  0
  2  3  1  0
  3  4  1  0
  4  5  1  0
  4  6  1  0
  6  7  1  0
  7  8  1  0
  8  9  1  0
  9 10  2  0
 10 11  1  0
 11 12  2  0
 12 13  1  0
 13 14  2  0
 14  9  1  0
M  END
>  <Title>  (440) 
idAAOZgen14

$$$$

     RDKit          2D

 27 30  0  0  0  0  0  0  0  0999 V2000
   -3.1476   -2.1380    0.0000 C   0  0  0  0  0  0  0  0  0  0  0  0
   -1.6852   -2.4718    0.0000 C   0  0  0  0  0  0  0  0  0  0  0  0
   -1.3515   -3.9342    0.0000 C   0  0  0  0  0  0  0  0  0  0  0  0
   -0.0000   -4.5850    0.0000 C   0  0  0  0  0  0  0  0  0  0  0  0
    1.3515   -3.9342    0.0000 C   0  0  0  0  0  0  0  0  0  0  0  0
    1.6852   -2.4718    0.0000 C   0  0  0  0  0  0  0  0  0  0  0  0
    3.1476   -2.1380    0.0000 N   0  0  0  0  0  0  0  0  0  0  0  0
    3.7372   -0.7587    0.0000 C   0  0  0  0  0  0  0  0  0  0  0  0
    5.2311   -0.8932    0.0000 C   0  0  0  0  0  0  0  0  0  0  0  0
    5.5649   -2.3556    0.0000 C   0  0  0  0  0  0  0  0  0  0  0  0
    6.9442   -2.9451    0.0000 C   0  0  0  0  0  0  0  0  0  0  0  0
    8.1444   -2.0454    0.0000 O   0  0  0  0  0  0  0  0  0  0  0  0
    7.1233   -4.4344    0.0000 N   0  0  0  0  0  0  0  0  0  0  0  0
    8.5026   -5.0239    0.0000 C   0  0  0  0  0  0  0  0  0  0  0  0
    8.6817   -6.5132    0.0000 N   0  0  0  0  0  0  0  0  0  0  0  0
   10.0610   -7.1027    0.0000 N   0  0  0  0  0  0  0  0  0  0  0  0
   11.2612   -6.2030    0.0000 N   0  0  0  0  0  0  0  0  0  0  0  0
   11.0821   -4.7137    0.0000 N   0  0  0  0  0  0  0  0  0  0  0  0
    9.7028   -4.1242    0.0000 N   0  0  0  0  0  0  0  0  0  0  0  0
    4.2772   -3.1249    0.0000 C   0  0  0  0  0  0  0  0  0  0  0  0
    4.1428   -4.6189    0.0000 O   0  0  0  0  0  0  0  0  0  0  0  0
    0.7500   -1.2990    0.0000 C   0  0  0  0  0  0  0  0  0  0  0  0
    1.5000    0.0000    0.0000 C   0  0  0  0  0  0  0  0  0  0  0  0
    0.7500    1.2990    0.0000 C   0  0  0  0  0  0  0  0  0  0  0  0
   -0.7500    1.2990    0.0000 C   0  0  0  0  0  0  0  0  0  0  0  0
   -1.5000    0.0000    0.0000 C   0  0  0  0  0  0  0  0  0  0  0  0
   -0.7500   -1.2990    0.0000 C   0  0  0  0  0  0  0  0  0  0  0  0
  1  2  1  0
  2  3  2  0
  3  4  1  0
  4  5  1  0
  5  6  2  0
  6  7  1  0
  7  8  1  0
  8  9  1  0
  9 10  2  0
 10 11  1  0
 11 12  2  0
 11 13  1  0
 13 14  1  0
 14 15  2  0
 15 16  1  0
 16 17  2  0
 17 18  1  0
 18 19  2  0
 10 20  1  0
 20 21  2  0
  6 22  1  0
 22 23  2  0
 23 24  1  0
 24 25  2  0
 25 26  1  0
 26 27  2  0
 27  2  1  0
 20  7  1  0
 27 22  1  0
 19 14  1  0
M  END
>  <Title>  (441) 
idAAPAgen14

$$$$

     RDKit          2D

 36 40  0  0  0  0  0  0  0  0999 V2000
   -5.2500   -3.8971    0.0000 C   0  0  0  0  0  0  0  0  0  0  0  0
   -3.7500   -3.8971    0.0000 C   0  0  0  0  0  0  0  0  0  0  0  0
   -3.0000   -2.5981    0.0000 C   0  0  0  0  0  0  0  0  0  0  0  0
   -1.5000   -2.5981    0.0000 C   0  0  0  0  0  0  0  0  0  0  0  0
   -0.7500   -3.8971    0.0000 C   0  0  0  0  0  0  0  0  0  0  0  0
    0.7500   -3.8971    0.0000 C   0  0  0  0  0  0  0  0  0  0  0  0
    1.5000   -2.5981    0.0000 C   0  0  0  0  0  0  0  0  0  0  0  0
    3.0000   -2.5981    0.0000 C   0  0  0  0  0  0  0  0  0  0  0  0
    3.7500   -1.2990    0.0000 O   0  0  0  0  0  0  0  0  0  0  0  0
    3.7500   -3.8971    0.0000 N   0  0  0  0  0  0  0  0  0  0  0  0
    5.2500   -3.8971    0.0000 C   0  0  0  0  0  0  0  0  0  0  0  0
    6.1317   -2.6836    0.0000 N   0  0  0  0  0  0  0  0  0  0  0  0
    7.5583   -3.1471    0.0000 N   0  0  0  0  0  0  0  0  0  0  0  0
    7.5583   -4.6471    0.0000 N   0  0  0  0  0  0  0  0  0  0  0  0
    6.1317   -5.1106    0.0000 N   0  0  0  0  0  0  0  0  0  0  0  0
    5.6682   -6.5372    0.0000 C   0  0  0  0  0  0  0  0  0  0  0  0
    6.5498   -7.7508    0.0000 C   0  0  0  0  0  0  0  0  0  0  0  0
    5.6682   -8.9643    0.0000 C   0  0  0  0  0  0  0  0  0  0  0  0
    4.2416   -8.5008    0.0000 C   0  0  0  0  0  0  0  0  0  0  0  0
    3.0280   -9.3824    0.0000 C   0  0  0  0  0  0  0  0  0  0  0  0
    3.1848  -10.8742    0.0000 O   0  0  0  0  0  0  0  0  0  0  0  0
    1.6577   -8.7723    0.0000 N   0  0  0  0  0  0  0  0  0  0  0  0
    0.4442   -9.6540    0.0000 C   0  0  0  0  0  0  0  0  0  0  0  0
   -0.9261   -9.0439    0.0000 N   0  0  0  0  0  0  0  0  0  0  0  0
   -2.1396   -9.9256    0.0000 N   0  0  0  0  0  0  0  0  0  0  0  0
   -1.9829  -11.4174    0.0000 N   0  0  0  0  0  0  0  0  0  0  0  0
   -0.6125  -12.0275    0.0000 N   0  0  0  0  0  0  0  0  0  0  0  0
    0.6010  -11.1458    0.0000 N   0  0  0  0  0  0  0  0  0  0  0  0
    4.2416   -7.0008    0.0000 C   0  0  0  0  0  0  0  0  0  0  0  0
    3.0280   -6.1191    0.0000 O   0  0  0  0  0  0  0  0  0  0  0  0
    0.7500   -1.2990    0.0000 C   0  0  0  0  0  0  0  0  0  0  0  0
    1.5000    0.0000    0.0000 C   0  0  0  0  0  0  0  0  0  0  0  0
    0.7500    1.2990    0.0000 C   0  0  0  0  0  0  0  0  0  0  0  0
   -0.7500    1.2990    0.0000 C   0  0  0  0  0  0  0  0  0  0  0  0
   -1.5000    0.0000    0.0000 C   0  0  0  0  0  0  0  0  0  0  0  0
   -0.7500   -1.2990    0.0000 C   0  0  0  0  0  0  0  0  0  0  0  0
  1  2  1  0
  2  3  1  0
  3  4  1  0
  4  5  2  0
  5  6  1  0
  6  7  2  0
  7  8  1  0
  8  9  2  0
  8 10  1  0
 10 11  1  0
 11 12  2  0
 12 13  1  0
 13 14  2  0
 14 15  1  0
 15 16  1  0
 16 17  2  0
 17 18  1  0
 18 19  2  0
 19 20  1  0
 20 21  2  0
 20 22  1  0
 22 23  1  0
 23 24  2  0
 24 25  1  0
 25 26  2  0
 26 27  1  0
 27 28  2  0
 19 29  1  0
 29 30  2  0
  7 31  1  0
 31 32  2  0
 32 33  1  0
 33 34  2  0
 34 35  1  0
 35 36  2  0
 36  4  1  0
 15 11  1  0
 29 16  1  0
 36 31  1  0
 28 23  1  0
M  END
>  <Title>  (442) 
idAAPBgen14

$$$$

     RDKit          2D

 11 11  0  0  0  0  0  0  0  0999 V2000
    6.0000   -2.5981    0.0000 C   0  0  0  0  0  0  0  0  0  0  0  0
    5.2500   -1.2990    0.0000 C   0  0  0  0  0  0  0  0  0  0  0  0
    3.7500   -1.2990    0.0000 C   0  0  0  0  0  0  0  0  0  0  0  0
    3.0000    0.0000    0.0000 C   0  0  0  0  0  0  0  0  0  0  0  0
    3.7500    1.2990    0.0000 O   0  0  0  0  0  0  0  0  0  0  0  0
    1.5000    0.0000    0.0000 C   0  0  0  0  0  0  0  0  0  0  0  0
    0.7500   -1.2990    0.0000 C   0  0  0  0  0  0  0  0  0  0  0  0
   -0.7500   -1.2990    0.0000 C   0  0  0  0  0  0  0  0  0  0  0  0
   -1.5000    0.0000    0.0000 C   0  0  0  0  0  0  0  0  0  0  0  0
   -0.7500    1.2990    0.0000 N   0  0  0  0  0  0  0  0  0  0  0  0
    0.7500    1.2990    0.0000 C   0  0  0  0  0  0  0  0  0  0  0  0
  1  2  1  0
  2  3  1  0
  3  4  1  0
  4  5  1  0
  4  6  1  0
  6  7  2  0
  7  8  1  0
  8  9  2  0
  9 10  1  0
 10 11  2  0
 11  6  1  0
M  END
>  <Title>  (443) 
idAAPCgen14

$$$$

     RDKit          2D

 12 12  0  0  0  0  0  0  0  0999 V2000
   10.5000    0.0000    0.0000 C   0  0  0  0  0  0  0  0  0  0  0  0
    9.0000    0.0000    0.0000 C   0  0  0  0  0  0  0  0  0  0  0  0
    7.5000    0.0000    0.0000 C   0  0  0  0  0  0  0  0  0  0  0  0
    6.0000    0.0000    0.0000 C   0  0  0  0  0  0  0  0  0  0  0  0
    4.5000    0.0000    0.0000 C   0  0  0  0  0  0  0  0  0  0  0  0
    3.0000    0.0000    0.0000 C   0  0  0  0  0  0  0  0  0  0  0  0
    1.5000    0.0000    0.0000 C   0  0  0  0  0  0  0  0  0  0  0  0
    0.7500   -1.2990    0.0000 C   0  0  0  0  0  0  0  0  0  0  0  0
   -0.7500   -1.2990    0.0000 C   0  0  0  0  0  0  0  0  0  0  0  0
   -1.5000    0.0000    0.0000 C   0  0  0  0  0  0  0  0  0  0  0  0
   -0.7500    1.2990    0.0000 C   0  0  0  0  0  0  0  0  0  0  0  0
    0.7500    1.2990    0.0000 N   0  0  0  0  0  0  0  0  0  0  0  0
  1  2  3  0
  2  3  1  0
  3  4  3  0
  4  5  1  0
  5  6  3  0
  6  7  1  0
  7  8  1  0
  8  9  2  0
  9 10  1  0
 10 11  1  0
 11 12  2  0
 12  7  1  0
M  END
>  <Title>  (444) 
idAAPDgen14

$$$$

     RDKit          2D

 10 10  0  0  0  0  0  0  0  0999 V2000
    5.2500   -1.2990    0.0000 C   0  0  0  0  0  0  0  0  0  0  0  0
    3.7500   -1.2990    0.0000 C   0  0  0  0  0  0  0  0  0  0  0  0
    3.0000   -2.5981    0.0000 O   0  0  0  0  0  0  0  0  0  0  0  0
    3.0000    0.0000    0.0000 N   0  0  0  0  0  0  0  0  0  0  0  0
    1.5000    0.0000    0.0000 C   0  0  0  0  0  0  0  0  0  0  0  0
    0.7500   -1.2990    0.0000 C   0  0  0  0  0  0  0  0  0  0  0  0
   -0.7500   -1.2990    0.0000 C   0  0  0  0  0  0  0  0  0  0  0  0
   -1.5000    0.0000    0.0000 C   0  0  0  0  0  0  0  0  0  0  0  0
   -0.7500    1.2990    0.0000 C   0  0  0  0  0  0  0  0  0  0  0  0
    0.7500    1.2990    0.0000 C   0  0  0  0  0  0  0  0  0  0  0  0
  1  2  1  0
  2  3  2  0
  2  4  1  0
  4  5  1  0
  5  6  2  0
  6  7  1  0
  7  8  1  0
  8  9  1  0
  9 10  2  0
 10  5  1  0
M  END
>  <Title>  (445) 
idAAPEgen14

$$$$

     RDKit          2D

  6  5  0  0  0  0  0  0  0  0999 V2000
    0.0000    0.0000    0.0000 C   0  0  0  0  0  0  0  0  0  0  0  0
    1.2990    0.7500    0.0000 C   0  0  0  0  0  0  0  0  0  0  0  0
    2.5981   -0.0000    0.0000 C   0  0  0  0  0  0  0  0  0  0  0  0
    3.8971    0.7500    0.0000 N   0  0  0  0  0  0  0  0  0  0  0  0
    5.1962   -0.0000    0.0000 C   0  0  0  0  0  0  0  0  0  0  0  0
    3.8971    2.2500    0.0000 C   0  0  0  0  0  0  0  0  0  0  0  0
  1  2  1  0
  2  3  1  0
  3  4  1  0
  4  5  1  0
  4  6  1  0
M  END
>  <Title>  (446) 
idAAPFgen14

$$$$

     RDKit          2D

  9  8  0  0  0  0  0  0  0  0999 V2000
    0.0000    0.0000    0.0000 C   0  0  0  0  0  0  0  0  0  0  0  0
    1.2990    0.7500    0.0000 C   0  0  0  0  0  0  0  0  0  0  0  0
    2.5981   -0.0000    0.0000 C   0  0  0  0  0  0  0  0  0  0  0  0
    1.2990    2.2500    0.0000 C   0  0  0  0  0  0  0  0  0  0  0  0
    2.5981    3.0000    0.0000 C   0  0  0  0  0  0  0  0  0  0  0  0
    2.5981    4.5000    0.0000 N   0  0  0  0  0  0  0  0  0  0  0  0
    3.8971    5.2500    0.0000 N   0  0  0  0  0  0  0  0  0  0  0  0
    3.8971    6.7500    0.0000 N   0  0  0  0  0  0  0  0  0  0  0  0
    5.1962    7.5000    0.0000 N   0  0  0  0  0  0  0  0  0  0  0  0
  1  2  1  0
  2  3  1  0
  2  4  1  0
  4  5  1  0
  5  6  2  3
  6  7  1  0
  7  8  2  3
  8  9  1  0
M  END
>  <Title>  (447) 
idAAPGgen14

$$$$

     RDKit          2D

 45 51  0  0  0  0  0  0  0  0999 V2000
    2.3737   -6.1885    0.0000 C   0  0  0  0  0  0  0  0  0  0  0  0
    1.4095   -5.0395    0.0000 C   0  0  0  0  0  0  0  0  0  0  0  0
    2.1595   -3.7404    0.0000 C   0  0  0  0  0  0  0  0  0  0  0  0
    1.8991   -2.2632    0.0000 C   0  0  0  0  0  0  0  0  0  0  0  0
    3.1981   -1.5132    0.0000 C   0  0  0  0  0  0  0  0  0  0  0  0
    3.1981   -0.0132    0.0000 O   0  0  0  0  0  0  0  0  0  0  0  0
    4.4971   -2.2632    0.0000 N   0  0  0  0  0  0  0  0  0  0  0  0
    5.7962   -1.5132    0.0000 C   0  0  0  0  0  0  0  0  0  0  0  0
    5.9530   -0.0214    0.0000 N   0  0  0  0  0  0  0  0  0  0  0  0
    7.4202    0.2904    0.0000 N   0  0  0  0  0  0  0  0  0  0  0  0
    8.1702   -1.0086    0.0000 N   0  0  0  0  0  0  0  0  0  0  0  0
    7.1665   -2.1233    0.0000 N   0  0  0  0  0  0  0  0  0  0  0  0
    7.4784   -3.5905    0.0000 C   0  0  0  0  0  0  0  0  0  0  0  0
    8.8487   -4.2007    0.0000 C   0  0  0  0  0  0  0  0  0  0  0  0
    8.6919   -5.6924    0.0000 C   0  0  0  0  0  0  0  0  0  0  0  0
    7.2247   -6.0043    0.0000 C   0  0  0  0  0  0  0  0  0  0  0  0
    6.6146   -7.3746    0.0000 C   0  0  0  0  0  0  0  0  0  0  0  0
    7.4962   -8.5881    0.0000 O   0  0  0  0  0  0  0  0  0  0  0  0
    5.1228   -7.5314    0.0000 N   0  0  0  0  0  0  0  0  0  0  0  0
    4.5127   -8.9017    0.0000 C   0  0  0  0  0  0  0  0  0  0  0  0
    3.0209   -9.0585    0.0000 N   0  0  0  0  0  0  0  0  0  0  0  0
    2.4108  -10.4288    0.0000 N   0  0  0  0  0  0  0  0  0  0  0  0
    3.2925  -11.6424    0.0000 N   0  0  0  0  0  0  0  0  0  0  0  0
    4.7843  -11.4856    0.0000 N   0  0  0  0  0  0  0  0  0  0  0  0
    5.3944  -10.1153    0.0000 N   0  0  0  0  0  0  0  0  0  0  0  0
    6.4747   -4.7053    0.0000 C   0  0  0  0  0  0  0  0  0  0  0  0
    4.9829   -4.5485    0.0000 O   0  0  0  0  0  0  0  0  0  0  0  0
    0.7500   -1.2990    0.0000 C   0  0  0  0  0  0  0  0  0  0  0  0
    1.5000    0.0000    0.0000 C   0  0  0  0  0  0  0  0  0  0  0  0
    0.7500    1.2990    0.0000 C   0  0  0  0  0  0  0  0  0  0  0  0
   -0.7500    1.2990    0.0000 C   0  0  0  0  0  0  0  0  0  0  0  0
   -1.5000    0.0000    0.0000 C   0  0  0  0  0  0  0  0  0  0  0  0
   -0.7500   -1.2990    0.0000 C   0  0  0  0  0  0  0  0  0  0  0  0
   -1.8991   -2.2632    0.0000 C   0  0  0  0  0  0  0  0  0  0  0  0
   -3.0481   -1.2990    0.0000 C   0  0  0  0  0  0  0  0  0  0  0  0
   -4.4577   -1.8121    0.0000 C   0  0  0  0  0  0  0  0  0  0  0  0
   -4.7181   -3.2893    0.0000 C   0  0  0  0  0  0  0  0  0  0  0  0
   -3.5691   -4.2535    0.0000 C   0  0  0  0  0  0  0  0  0  0  0  0
   -2.1595   -3.7404    0.0000 C   0  0  0  0  0  0  0  0  0  0  0  0
   -1.4095   -5.0395    0.0000 C   0  0  0  0  0  0  0  0  0  0  0  0
   -2.5586   -6.0037    0.0000 C   0  0  0  0  0  0  0  0  0  0  0  0
   -2.2981   -7.4809    0.0000 C   0  0  0  0  0  0  0  0  0  0  0  0
   -0.8886   -7.9939    0.0000 C   0  0  0  0  0  0  0  0  0  0  0  0
    0.2605   -7.0297    0.0000 C   0  0  0  0  0  0  0  0  0  0  0  0
   -0.0000   -5.5525    0.0000 C   0  0  0  0  0  0  0  0  0  0  0  0
  1  2  1  0
  2  3  2  0
  3  4  1  0
  4  5  1  0
  5  6  2  0
  5  7  1  0
  7  8  1  0
  8  9  2  0
  9 10  1  0
 10 11  2  0
 11 12  1  0
 12 13  1  0
 13 14  2  0
 14 15  1  0
 15 16  2  0
 16 17  1  0
 17 18  2  0
 17 19  1  0
 19 20  1  0
 20 21  2  0
 21 22  1  0
 22 23  2  0
 23 24  1  0
 24 25  2  0
 16 26  1  0
 26 27  2  0
  4 28  1  0
 28 29  2  0
 29 30  1  0
 30 31  2  0
 31 32  1  0
 32 33  2  0
 33 34  1  0
 34 35  2  0
 35 36  1  0
 36 37  2  0
 37 38  1  0
 38 39  2  0
 39 40  1  0
 40 41  2  0
 41 42  1  0
 42 43  2  0
 43 44  1  0
 44 45  2  0
 45  2  1  0
 12  8  1  0
 26 13  1  0
 33 28  1  0
 39 34  1  0
 45 40  1  0
 25 20  1  0
M  END
>  <Title>  (448) 
idAAPHgen14

$$$$

     RDKit          2D

  7  6  0  0  0  0  0  0  0  0999 V2000
    0.0000    0.0000    0.0000 C   0  0  0  0  0  0  0  0  0  0  0  0
   -0.0000   -1.5000    0.0000 C   0  0  0  0  0  0  0  0  0  0  0  0
   -0.0000   -3.0000    0.0000 C   0  0  0  0  0  0  0  0  0  0  0  0
    1.2990   -3.7500    0.0000 C   0  0  0  0  0  0  0  0  0  0  0  0
    1.2990   -5.2500    0.0000 C   0  0  0  0  0  0  0  0  0  0  0  0
    2.5981   -6.0000    0.0000 C   0  0  0  0  0  0  0  0  0  0  0  0
    3.8971   -6.7500    0.0000 N   0  0  0  0  0  0  0  0  0  0  0  0
  1  2  3  0
  2  3  1  0
  3  4  1  0
  4  5  1  0
  5  6  1  0
  6  7  3  0
M  END
>  <Title>  (449) 
idAAPIgen14

$$$$

     RDKit          2D

 12 11  0  0  0  0  0  0  0  0999 V2000
    0.0000    0.0000    0.0000 C   0  0  0  0  0  0  0  0  0  0  0  0
    1.2990    0.7500    0.0000 C   0  0  0  0  0  0  0  0  0  0  0  0
    2.5981   -0.0000    0.0000 C   0  0  0  0  0  0  0  0  0  0  0  0
    3.8971    0.7500    0.0000 C   0  0  0  0  0  0  0  0  0  0  0  0
    5.1962   -0.0000    0.0000 C   0  0  0  0  0  0  0  0  0  0  0  0
    3.8971    2.2500    0.0000 N   0  0  0  0  0  0  0  0  0  0  0  0
    5.1962    3.0000    0.0000 C   0  0  0  0  0  0  0  0  0  0  0  0
    6.4952    2.2500    0.0000 O   0  0  0  0  0  0  0  0  0  0  0  0
    5.1962    4.5000    0.0000 C   0  0  0  0  0  0  0  0  0  0  0  0
    6.4952    5.2500    0.0000 C   0  0  0  0  0  0  0  0  0  0  0  0
    6.4952    6.7500    0.0000 C   0  0  0  0  0  0  0  0  0  0  0  0
    7.7942    4.5000    0.0000 C   0  0  0  0  0  0  0  0  0  0  0  0
  1  2  1  0
  2  3  1  0
  3  4  1  0
  4  5  1  0
  4  6  1  0
  6  7  1  0
  7  8  2  0
  7  9  1  0
  9 10  1  0
 10 11  1  0
 10 12  1  0
M  END
>  <Title>  (450) 
idAAPJgen14

$$$$

     RDKit          2D

 36 40  0  0  0  0  0  0  0  0999 V2000
   -5.2500   -3.8971    0.0000 C   0  0  0  0  0  0  0  0  0  0  0  0
   -3.7500   -3.8971    0.0000 C   0  0  0  0  0  0  0  0  0  0  0  0
   -3.0000   -2.5981    0.0000 C   0  0  0  0  0  0  0  0  0  0  0  0
   -1.5000   -2.5981    0.0000 C   0  0  0  0  0  0  0  0  0  0  0  0
   -0.7500   -3.8971    0.0000 C   0  0  0  0  0  0  0  0  0  0  0  0
    0.7500   -3.8971    0.0000 C   0  0  0  0  0  0  0  0  0  0  0  0
    1.5000   -2.5981    0.0000 C   0  0  0  0  0  0  0  0  0  0  0  0
    3.0000   -2.5981    0.0000 C   0  0  0  0  0  0  0  0  0  0  0  0
    3.7500   -1.2990    0.0000 O   0  0  0  0  0  0  0  0  0  0  0  0
    3.7500   -3.8971    0.0000 N   0  0  0  0  0  0  0  0  0  0  0  0
    5.2500   -3.8971    0.0000 C   0  0  0  0  0  0  0  0  0  0  0  0
    6.1317   -2.6836    0.0000 N   0  0  0  0  0  0  0  0  0  0  0  0
    7.5583   -3.1471    0.0000 N   0  0  0  0  0  0  0  0  0  0  0  0
    7.5583   -4.6471    0.0000 N   0  0  0  0  0  0  0  0  0  0  0  0
    6.1317   -5.1106    0.0000 N   0  0  0  0  0  0  0  0  0  0  0  0
    5.6682   -6.5372    0.0000 N   0  0  0  0  0  0  0  0  0  0  0  0
    6.5498   -7.7508    0.0000 C   0  0  0  0  0  0  0  0  0  0  0  0
    5.6682   -8.9643    0.0000 C   0  0  0  0  0  0  0  0  0  0  0  0
    4.2416   -8.5008    0.0000 N   0  0  0  0  0  0  0  0  0  0  0  0
    3.0280   -9.3824    0.0000 C   0  0  0  0  0  0  0  0  0  0  0  0
    3.1848  -10.8742    0.0000 O   0  0  0  0  0  0  0  0  0  0  0  0
    1.6577   -8.7723    0.0000 N   0  0  0  0  0  0  0  0  0  0  0  0
    0.4442   -9.6540    0.0000 C   0  0  0  0  0  0  0  0  0  0  0  0
   -0.9261   -9.0439    0.0000 N   0  0  0  0  0  0  0  0  0  0  0  0
   -2.1396   -9.9256    0.0000 N   0  0  0  0  0  0  0  0  0  0  0  0
   -1.9829  -11.4174    0.0000 N   0  0  0  0  0  0  0  0  0  0  0  0
   -0.6125  -12.0275    0.0000 N   0  0  0  0  0  0  0  0  0  0  0  0
    0.6010  -11.1458    0.0000 N   0  0  0  0  0  0  0  0  0  0  0  0
    4.2416   -7.0008    0.0000 C   0  0  0  0  0  0  0  0  0  0  0  0
    3.0280   -6.1191    0.0000 O   0  0  0  0  0  0  0  0  0  0  0  0
    0.7500   -1.2990    0.0000 C   0  0  0  0  0  0  0  0  0  0  0  0
    1.5000    0.0000    0.0000 C   0  0  0  0  0  0  0  0  0  0  0  0
    0.7500    1.2990    0.0000 C   0  0  0  0  0  0  0  0  0  0  0  0
   -0.7500    1.2990    0.0000 C   0  0  0  0  0  0  0  0  0  0  0  0
   -1.5000    0.0000    0.0000 C   0  0  0  0  0  0  0  0  0  0  0  0
   -0.7500   -1.2990    0.0000 C   0  0  0  0  0  0  0  0  0  0  0  0
  1  2  1  0
  2  3  1  0
  3  4  1  0
  4  5  2  0
  5  6  1  0
  6  7  2  0
  7  8  1  0
  8  9  2  0
  8 10  1  0
 10 11  1  0
 11 12  2  0
 12 13  1  0
 13 14  2  0
 14 15  1  0
 15 16  1  0
 16 17  1  0
 17 18  1  0
 18 19  1  0
 19 20  1  0
 20 21  2  0
 20 22  1  0
 22 23  1  0
 23 24  2  0
 24 25  1  0
 25 26  2  0
 26 27  1  0
 27 28  2  0
 19 29  1  0
 29 30  2  0
  7 31  1  0
 31 32  2  0
 32 33  1  0
 33 34  2  0
 34 35  1  0
 35 36  2  0
 36  4  1  0
 15 11  1  0
 29 16  1  0
 36 31  1  0
 28 23  1  0
M  END
>  <Title>  (451) 
idAAPKgen14

$$$$

     RDKit          2D

 37 41  0  0  0  0  0  0  0  0999 V2000
   -3.1965   -1.7857    0.0000 C   0  0  0  0  0  0  0  0  0  0  0  0
   -1.8107   -2.3597    0.0000 C   0  0  0  0  0  0  0  0  0  0  0  0
   -1.8107   -3.8597    0.0000 C   0  0  0  0  0  0  0  0  0  0  0  0
   -0.7500   -4.9204    0.0000 C   0  0  0  0  0  0  0  0  0  0  0  0
    0.7500   -4.9204    0.0000 C   0  0  0  0  0  0  0  0  0  0  0  0
    1.3240   -6.3062    0.0000 C   0  0  0  0  0  0  0  0  0  0  0  0
    2.8112   -6.5020    0.0000 O   0  0  0  0  0  0  0  0  0  0  0  0
    0.4109   -7.4962    0.0000 N   0  0  0  0  0  0  0  0  0  0  0  0
    0.9849   -8.8820    0.0000 C   0  0  0  0  0  0  0  0  0  0  0  0
    2.4435   -9.2322    0.0000 N   0  0  0  0  0  0  0  0  0  0  0  0
    2.5612  -10.7276    0.0000 N   0  0  0  0  0  0  0  0  0  0  0  0
    1.1753  -11.3016    0.0000 N   0  0  0  0  0  0  0  0  0  0  0  0
    0.2012  -10.1610    0.0000 N   0  0  0  0  0  0  0  0  0  0  0  0
   -1.2942  -10.2787    0.0000 N   0  0  0  0  0  0  0  0  0  0  0  0
   -2.0780  -11.5576    0.0000 C   0  0  0  0  0  0  0  0  0  0  0  0
   -3.5365  -11.2075    0.0000 C   0  0  0  0  0  0  0  0  0  0  0  0
   -3.6542   -9.7121    0.0000 N   0  0  0  0  0  0  0  0  0  0  0  0
   -4.9332   -8.9283    0.0000 C   0  0  0  0  0  0  0  0  0  0  0  0
   -6.2514   -9.6441    0.0000 O   0  0  0  0  0  0  0  0  0  0  0  0
   -4.8939   -7.4289    0.0000 N   0  0  0  0  0  0  0  0  0  0  0  0
   -6.1729   -6.6451    0.0000 C   0  0  0  0  0  0  0  0  0  0  0  0
   -6.1336   -5.1456    0.0000 N   0  0  0  0  0  0  0  0  0  0  0  0
   -7.4126   -4.3619    0.0000 N   0  0  0  0  0  0  0  0  0  0  0  0
   -8.7308   -5.0776    0.0000 N   0  0  0  0  0  0  0  0  0  0  0  0
   -8.7700   -6.5771    0.0000 N   0  0  0  0  0  0  0  0  0  0  0  0
   -7.4911   -7.3608    0.0000 N   0  0  0  0  0  0  0  0  0  0  0  0
   -2.2684   -9.1381    0.0000 C   0  0  0  0  0  0  0  0  0  0  0  0
   -1.9182   -7.6795    0.0000 O   0  0  0  0  0  0  0  0  0  0  0  0
    1.8107   -3.8597    0.0000 C   0  0  0  0  0  0  0  0  0  0  0  0
    3.1965   -4.4337    0.0000 O   0  0  0  0  0  0  0  0  0  0  0  0
    1.8107   -2.3597    0.0000 O   0  0  0  0  0  0  0  0  0  0  0  0
    0.7500   -1.2990    0.0000 C   0  0  0  0  0  0  0  0  0  0  0  0
    1.5000    0.0000    0.0000 C   0  0  0  0  0  0  0  0  0  0  0  0
    0.7500    1.2990    0.0000 C   0  0  0  0  0  0  0  0  0  0  0  0
   -0.7500    1.2990    0.0000 C   0  0  0  0  0  0  0  0  0  0  0  0
   -1.5000    0.0000    0.0000 C   0  0  0  0  0  0  0  0  0  0  0  0
   -0.7500   -1.2990    0.0000 C   0  0  0  0  0  0  0  0  0  0  0  0
  1  2  1  0
  2  3  2  0
  3  4  1  0
  4  5  2  0
  5  6  1  0
  6  7  2  0
  6  8  1  0
  8  9  1  0
  9 10  2  0
 10 11  1  0
 11 12  2  0
 12 13  1  0
 13 14  1  0
 14 15  1  0
 15 16  1  0
 16 17  1  0
 17 18  1  0
 18 19  2  0
 18 20  1  0
 20 21  1  0
 21 22  2  0
 22 23  1  0
 23 24  2  0
 24 25  1  0
 25 26  2  0
 17 27  1  0
 27 28  2  0
  5 29  1  0
 29 30  2  0
 29 31  1  0
 31 32  1  0
 32 33  2  0
 33 34  1  0
 34 35  2  0
 35 36  1  0
 36 37  2  0
 37  2  1  0
 13  9  1  0
 27 14  1  0
 37 32  1  0
 26 21  1  0
M  END
>  <Title>  (452) 
idAAPLgen14

$$$$

     RDKit          2D

 42 47  0  0  0  0  0  0  0  0999 V2000
   -2.5725    0.8135    0.0000 C   0  0  0  0  0  0  0  0  0  0  0  0
   -3.5466   -0.3271    0.0000 C   0  0  0  0  0  0  0  0  0  0  0  0
   -5.0420   -0.2094    0.0000 N   0  0  0  0  0  0  0  0  0  0  0  0
   -5.6160   -1.5952    0.0000 N   0  0  0  0  0  0  0  0  0  0  0  0
   -4.4754   -2.5694    0.0000 N   0  0  0  0  0  0  0  0  0  0  0  0
   -3.1965   -1.7857    0.0000 N   0  0  0  0  0  0  0  0  0  0  0  0
   -1.8107   -2.3597    0.0000 C   0  0  0  0  0  0  0  0  0  0  0  0
   -1.8107   -3.8597    0.0000 C   0  0  0  0  0  0  0  0  0  0  0  0
   -0.7500   -4.9204    0.0000 C   0  0  0  0  0  0  0  0  0  0  0  0
    0.7500   -4.9204    0.0000 C   0  0  0  0  0  0  0  0  0  0  0  0
    1.3240   -6.3062    0.0000 C   0  0  0  0  0  0  0  0  0  0  0  0
    2.8112   -6.5020    0.0000 O   0  0  0  0  0  0  0  0  0  0  0  0
    0.4109   -7.4962    0.0000 N   0  0  0  0  0  0  0  0  0  0  0  0
    0.9849   -8.8820    0.0000 C   0  0  0  0  0  0  0  0  0  0  0  0
    2.4435   -9.2322    0.0000 N   0  0  0  0  0  0  0  0  0  0  0  0
    2.5612  -10.7276    0.0000 N   0  0  0  0  0  0  0  0  0  0  0  0
    1.1753  -11.3016    0.0000 N   0  0  0  0  0  0  0  0  0  0  0  0
    0.2012  -10.1610    0.0000 N   0  0  0  0  0  0  0  0  0  0  0  0
   -1.2942  -10.2787    0.0000 N   0  0  0  0  0  0  0  0  0  0  0  0
   -2.0780  -11.5576    0.0000 C   0  0  0  0  0  0  0  0  0  0  0  0
   -3.5365  -11.2075    0.0000 C   0  0  0  0  0  0  0  0  0  0  0  0
   -3.6542   -9.7121    0.0000 N   0  0  0  0  0  0  0  0  0  0  0  0
   -4.9332   -8.9283    0.0000 C   0  0  0  0  0  0  0  0  0  0  0  0
   -6.2514   -9.6441    0.0000 O   0  0  0  0  0  0  0  0  0  0  0  0
   -4.8939   -7.4289    0.0000 N   0  0  0  0  0  0  0  0  0  0  0  0
   -6.1729   -6.6451    0.0000 C   0  0  0  0  0  0  0  0  0  0  0  0
   -6.1336   -5.1456    0.0000 N   0  0  0  0  0  0  0  0  0  0  0  0
   -7.4126   -4.3619    0.0000 N   0  0  0  0  0  0  0  0  0  0  0  0
   -8.7308   -5.0776    0.0000 N   0  0  0  0  0  0  0  0  0  0  0  0
   -8.7700   -6.5771    0.0000 N   0  0  0  0  0  0  0  0  0  0  0  0
   -7.4911   -7.3608    0.0000 N   0  0  0  0  0  0  0  0  0  0  0  0
   -2.2684   -9.1381    0.0000 C   0  0  0  0  0  0  0  0  0  0  0  0
   -1.9182   -7.6795    0.0000 O   0  0  0  0  0  0  0  0  0  0  0  0
    1.8107   -3.8597    0.0000 C   0  0  0  0  0  0  0  0  0  0  0  0
    3.1965   -4.4337    0.0000 O   0  0  0  0  0  0  0  0  0  0  0  0
    1.8107   -2.3597    0.0000 O   0  0  0  0  0  0  0  0  0  0  0  0
    0.7500   -1.2990    0.0000 C   0  0  0  0  0  0  0  0  0  0  0  0
    1.5000    0.0000    0.0000 C   0  0  0  0  0  0  0  0  0  0  0  0
    0.7500    1.2990    0.0000 C   0  0  0  0  0  0  0  0  0  0  0  0
   -0.7500    1.2990    0.0000 C   0  0  0  0  0  0  0  0  0  0  0  0
   -1.5000    0.0000    0.0000 C   0  0  0  0  0  0  0  0  0  0  0  0
   -0.7500   -1.2990    0.0000 C   0  0  0  0  0  0  0  0  0  0  0  0
  1  2  1  0
  2  3  2  0
  3  4  1  0
  4  5  2  0
  5  6  1  0
  6  7  1  0
  7  8  2  0
  8  9  1  0
  9 10  2  0
 10 11  1  0
 11 12  2  0
 11 13  1  0
 13 14  1  0
 14 15  2  0
 15 16  1  0
 16 17  2  0
 17 18  1  0
 18 19  1  0
 19 20  1  0
 20 21  1  0
 21 22  1  0
 22 23  1  0
 23 24  2  0
 23 25  1  0
 25 26  1  0
 26 27  2  0
 27 28  1  0
 28 29  2  0
 29 30  1  0
 30 31  2  0
 22 32  1  0
 32 33  2  0
 10 34  1  0
 34 35  2  0
 34 36  1  0
 36 37  1  0
 37 38  2  0
 38 39  1  0
 39 40  2  0
 40 41  1  0
 41 42  2  0
  6  2  1  0
 42  7  1  0
 18 14  1  0
 32 19  1  0
 42 37  1  0
 31 26  1  0
M  END
>  <Title>  (453) 
idAAPMgen14

$$$$

     RDKit          2D

 41 45  0  0  0  0  0  0  0  0999 V2000
   -8.2500   -6.4952    0.0000 C   0  0  0  0  0  0  0  0  0  0  0  0
   -7.5000   -5.1962    0.0000 C   0  0  0  0  0  0  0  0  0  0  0  0
   -8.2500   -3.8971    0.0000 C   0  0  0  0  0  0  0  0  0  0  0  0
   -6.0000   -5.1962    0.0000 C   0  0  0  0  0  0  0  0  0  0  0  0
   -5.2500   -3.8971    0.0000 C   0  0  0  0  0  0  0  0  0  0  0  0
   -3.7500   -3.8971    0.0000 C   0  0  0  0  0  0  0  0  0  0  0  0
   -3.0000   -5.1962    0.0000 O   0  0  0  0  0  0  0  0  0  0  0  0
   -3.0000   -2.5981    0.0000 N   0  0  0  0  0  0  0  0  0  0  0  0
   -1.5000   -2.5981    0.0000 C   0  0  0  0  0  0  0  0  0  0  0  0
   -0.7500   -3.8971    0.0000 C   0  0  0  0  0  0  0  0  0  0  0  0
    0.7500   -3.8971    0.0000 C   0  0  0  0  0  0  0  0  0  0  0  0
    1.5000   -2.5981    0.0000 C   0  0  0  0  0  0  0  0  0  0  0  0
    3.0000   -2.5981    0.0000 C   0  0  0  0  0  0  0  0  0  0  0  0
    3.7500   -1.2990    0.0000 O   0  0  0  0  0  0  0  0  0  0  0  0
    3.7500   -3.8971    0.0000 N   0  0  0  0  0  0  0  0  0  0  0  0
    5.2500   -3.8971    0.0000 C   0  0  0  0  0  0  0  0  0  0  0  0
    6.1317   -2.6836    0.0000 N   0  0  0  0  0  0  0  0  0  0  0  0
    7.5583   -3.1471    0.0000 N   0  0  0  0  0  0  0  0  0  0  0  0
    7.5583   -4.6471    0.0000 N   0  0  0  0  0  0  0  0  0  0  0  0
    6.1317   -5.1106    0.0000 N   0  0  0  0  0  0  0  0  0  0  0  0
    5.6682   -6.5372    0.0000 N   0  0  0  0  0  0  0  0  0  0  0  0
    6.5498   -7.7508    0.0000 C   0  0  0  0  0  0  0  0  0  0  0  0
    5.6682   -8.9643    0.0000 C   0  0  0  0  0  0  0  0  0  0  0  0
    4.2416   -8.5008    0.0000 N   0  0  0  0  0  0  0  0  0  0  0  0
    3.0280   -9.3824    0.0000 C   0  0  0  0  0  0  0  0  0  0  0  0
    3.1848  -10.8742    0.0000 O   0  0  0  0  0  0  0  0  0  0  0  0
    1.6577   -8.7723    0.0000 N   0  0  0  0  0  0  0  0  0  0  0  0
    0.4442   -9.6540    0.0000 C   0  0  0  0  0  0  0  0  0  0  0  0
   -0.9261   -9.0439    0.0000 N   0  0  0  0  0  0  0  0  0  0  0  0
   -2.1396   -9.9256    0.0000 N   0  0  0  0  0  0  0  0  0  0  0  0
   -1.9829  -11.4174    0.0000 N   0  0  0  0  0  0  0  0  0  0  0  0
   -0.6125  -12.0275    0.0000 N   0  0  0  0  0  0  0  0  0  0  0  0
    0.6010  -11.1458    0.0000 N   0  0  0  0  0  0  0  0  0  0  0  0
    4.2416   -7.0008    0.0000 C   0  0  0  0  0  0  0  0  0  0  0  0
    3.0280   -6.1191    0.0000 O   0  0  0  0  0  0  0  0  0  0  0  0
    0.7500   -1.2990    0.0000 C   0  0  0  0  0  0  0  0  0  0  0  0
    1.5000    0.0000    0.0000 C   0  0  0  0  0  0  0  0  0  0  0  0
    0.7500    1.2990    0.0000 C   0  0  0  0  0  0  0  0  0  0  0  0
   -0.7500    1.2990    0.0000 C   0  0  0  0  0  0  0  0  0  0  0  0
   -1.5000    0.0000    0.0000 C   0  0  0  0  0  0  0  0  0  0  0  0
   -0.7500   -1.2990    0.0000 C   0  0  0  0  0  0  0  0  0  0  0  0
  1  2  1  0
  2  3  1  0
  2  4  1  0
  4  5  1  0
  5  6  1  0
  6  7  2  0
  6  8  1  0
  8  9  1  0
  9 10  2  0
 10 11  1  0
 11 12  2  0
 12 13  1  0
 13 14  2  0
 13 15  1  0
 15 16  1  0
 16 17  2  0
 17 18  1  0
 18 19  2  0
 19 20  1  0
 20 21  1  0
 21 22  1  0
 22 23  1  0
 23 24  1  0
 24 25  1  0
 25 26  2  0
 25 27  1  0
 27 28  1  0
 28 29  2  0
 29 30  1  0
 30 31  2  0
 31 32  1  0
 32 33  2  0
 24 34  1  0
 34 35  2  0
 12 36  1  0
 36 37  2  0
 37 38  1  0
 38 39  2  0
 39 40  1  0
 40 41  2  0
 41  9  1  0
 20 16  1  0
 34 21  1  0
 41 36  1  0
 33 28  1  0
M  END
>  <Title>  (454) 
idAAPNgen14

$$$$

     RDKit          2D

 11 11  0  0  0  0  0  0  0  0999 V2000
    6.0000   -2.5981    0.0000 C   0  0  0  0  0  0  0  0  0  0  0  0
    5.2500   -1.2990    0.0000 C   0  0  0  0  0  0  0  0  0  0  0  0
    3.7500   -1.2990    0.0000 C   0  0  0  0  0  0  0  0  0  0  0  0
    3.0000   -2.5981    0.0000 O   0  0  0  0  0  0  0  0  0  0  0  0
    3.0000    0.0000    0.0000 N   0  0  0  0  0  0  0  0  0  0  0  0
    1.5000    0.0000    0.0000 C   0  0  0  0  0  0  0  0  0  0  0  0
    0.7500   -1.2990    0.0000 C   0  0  0  0  0  0  0  0  0  0  0  0
   -0.7500   -1.2990    0.0000 C   0  0  0  0  0  0  0  0  0  0  0  0
   -1.5000    0.0000    0.0000 C   0  0  0  0  0  0  0  0  0  0  0  0
   -0.7500    1.2990    0.0000 C   0  0  0  0  0  0  0  0  0  0  0  0
    0.7500    1.2990    0.0000 N   0  0  0  0  0  0  0  0  0  0  0  0
  1  2  1  0
  2  3  1  0
  3  4  1  0
  3  5  1  0
  5  6  1  0
  6  7  2  0
  7  8  1  0
  8  9  1  0
  9 10  1  0
 10 11  2  0
 11  6  1  0
M  END
>  <Title>  (455) 
idAAPOgen14

$$$$

     RDKit          2D

 14 14  0  0  0  0  0  0  0  0999 V2000
   13.5000    0.0000    0.0000 C   0  0  0  0  0  0  0  0  0  0  0  0
   12.0000    0.0000    0.0000 C   0  0  0  0  0  0  0  0  0  0  0  0
   10.5000    0.0000    0.0000 C   0  0  0  0  0  0  0  0  0  0  0  0
    9.0000    0.0000    0.0000 C   0  0  0  0  0  0  0  0  0  0  0  0
    7.5000    0.0000    0.0000 C   0  0  0  0  0  0  0  0  0  0  0  0
    6.0000    0.0000    0.0000 C   0  0  0  0  0  0  0  0  0  0  0  0
    4.5000    0.0000    0.0000 C   0  0  0  0  0  0  0  0  0  0  0  0
    3.0000    0.0000    0.0000 C   0  0  0  0  0  0  0  0  0  0  0  0
    1.5000    0.0000    0.0000 C   0  0  0  0  0  0  0  0  0  0  0  0
    0.7500   -1.2990    0.0000 C   0  0  0  0  0  0  0  0  0  0  0  0
   -0.7500   -1.2990    0.0000 C   0  0  0  0  0  0  0  0  0  0  0  0
   -1.5000    0.0000    0.0000 C   0  0  0  0  0  0  0  0  0  0  0  0
   -0.7500    1.2990    0.0000 C   0  0  0  0  0  0  0  0  0  0  0  0
    0.7500    1.2990    0.0000 N   0  0  0  0  0  0  0  0  0  0  0  0
  1  2  3  0
  2  3  1  0
  3  4  3  0
  4  5  1  0
  5  6  3  0
  6  7  1  0
  7  8  3  0
  8  9  1  0
  9 10  2  0
 10 11  1  0
 11 12  1  0
 12 13  1  0
 13 14  2  0
 14  9  1  0
M  END
>  <Title>  (456) 
idAAPPgen14

$$$$

     RDKit          2D

 23 25  0  0  0  0  0  0  0  0999 V2000
   -8.2500   -6.4952    0.0000 C   0  0  0  0  0  0  0  0  0  0  0  0
   -7.5000   -5.1962    0.0000 C   0  0  0  0  0  0  0  0  0  0  0  0
   -6.0000   -5.1962    0.0000 C   0  0  0  0  0  0  0  0  0  0  0  0
   -5.2500   -3.8971    0.0000 C   0  0  0  0  0  0  0  0  0  0  0  0
   -6.0000   -2.5981    0.0000 C   0  0  0  0  0  0  0  0  0  0  0  0
   -5.2500   -1.2990    0.0000 O   0  0  0  0  0  0  0  0  0  0  0  0
   -6.0000    0.0000    0.0000 C   0  0  0  0  0  0  0  0  0  0  0  0
   -7.5000    0.0000    0.0000 O   0  0  0  0  0  0  0  0  0  0  0  0
   -5.2500    1.2990    0.0000 N   0  0  0  0  0  0  0  0  0  0  0  0
   -6.0000    2.5981    0.0000 C   0  0  0  0  0  0  0  0  0  0  0  0
   -7.4918    2.7549    0.0000 N   0  0  0  0  0  0  0  0  0  0  0  0
   -7.8037    4.2221    0.0000 N   0  0  0  0  0  0  0  0  0  0  0  0
   -6.5046    4.9721    0.0000 N   0  0  0  0  0  0  0  0  0  0  0  0
   -5.3899    3.9684    0.0000 N   0  0  0  0  0  0  0  0  0  0  0  0
   -3.9227    4.2803    0.0000 C   0  0  0  0  0  0  0  0  0  0  0  0
   -2.9190    3.1655    0.0000 C   0  0  0  0  0  0  0  0  0  0  0  0
   -1.4518    3.4774    0.0000 C   0  0  0  0  0  0  0  0  0  0  0  0
   -0.9882    4.9040    0.0000 C   0  0  0  0  0  0  0  0  0  0  0  0
    0.4790    5.2159    0.0000 O   0  0  0  0  0  0  0  0  0  0  0  0
   -1.9919    6.0187    0.0000 C   0  0  0  0  0  0  0  0  0  0  0  0
   -3.4591    5.7068    0.0000 C   0  0  0  0  0  0  0  0  0  0  0  0
   -7.5000   -2.5981    0.0000 C   0  0  0  0  0  0  0  0  0  0  0  0
   -8.2500   -3.8971    0.0000 C   0  0  0  0  0  0  0  0  0  0  0  0
  1  2  1  0
  2  3  2  0
  3  4  1  0
  4  5  2  0
  5  6  1  0
  6  7  1  0
  7  8  2  0
  7  9  1  0
  9 10  1  0
 10 11  2  0
 11 12  1  0
 12 13  2  0
 13 14  1  0
 14 15  1  0
 15 16  2  0
 16 17  1  0
 17 18  2  0
 18 19  1  0
 18 20  1  0
 20 21  2  0
  5 22  1  0
 22 23  2  0
 23  2  1  0
 14 10  1  0
 21 15  1  0
M  END
>  <Title>  (457) 
idAAPQgen14

$$$$

     RDKit          2D

  6  6  0  0  0  0  0  0  0  0999 V2000
    2.7760    0.0000    0.0000 C   0  0  0  0  0  0  0  0  0  0  0  0
    1.2760    0.0000    0.0000 C   0  0  0  0  0  0  0  0  0  0  0  0
    0.3943    1.2135    0.0000 C   0  0  0  0  0  0  0  0  0  0  0  0
   -1.0323    0.7500    0.0000 C   0  0  0  0  0  0  0  0  0  0  0  0
   -1.0323   -0.7500    0.0000 C   0  0  0  0  0  0  0  0  0  0  0  0
    0.3943   -1.2135    0.0000 C   0  0  0  0  0  0  0  0  0  0  0  0
  1  2  1  0
  2  3  1  0
  3  4  1  0
  4  5  1  0
  5  6  1  0
  6  2  1  0
M  END
>  <Title>  (458) 
idAAPRgen14

$$$$

     RDKit          2D

  4  3  0  0  0  0  0  0  0  0999 V2000
    0.0000    0.0000    0.0000 C   0  0  0  0  0  0  0  0  0  0  0  0
    1.2990    0.7500    0.0000 C   0  0  0  0  0  0  0  0  0  0  0  0
    2.5981   -0.0000    0.0000 C   0  0  0  0  0  0  0  0  0  0  0  0
    3.8971    0.7500    0.0000 N   0  0  0  0  0  0  0  0  0  0  0  0
  1  2  1  0
  2  3  2  3
  3  4  1  0
M  END
>  <Title>  (459) 
idAAPSgen14

$$$$

     RDKit          2D

  5  4  0  0  0  0  0  0  0  0999 V2000
    0.0000    0.0000    0.0000 C   0  0  0  0  0  0  0  0  0  0  0  0
    1.2990    0.7500    0.0000 C   0  0  0  0  0  0  0  0  0  0  0  0
    2.5981   -0.0000    0.0000 C   0  0  0  0  0  0  0  0  0  0  0  0
    3.8971   -0.7500    0.0000 C   0  0  0  0  0  0  0  0  0  0  0  0
    5.1962   -1.5000    0.0000 O   0  0  0  0  0  0  0  0  0  0  0  0
  1  2  1  0
  2  3  1  0
  3  4  3  0
  4  5  1  0
M  END
>  <Title>  (460) 
idAAPTgen14

$$$$

     RDKit          2D

 37 41  0  0  0  0  0  0  0  0999 V2000
   -3.1965   -1.7857    0.0000 C   0  0  0  0  0  0  0  0  0  0  0  0
   -1.8107   -2.3597    0.0000 C   0  0  0  0  0  0  0  0  0  0  0  0
   -1.8107   -3.8597    0.0000 C   0  0  0  0  0  0  0  0  0  0  0  0
   -0.7500   -4.9204    0.0000 C   0  0  0  0  0  0  0  0  0  0  0  0
    0.7500   -4.9204    0.0000 C   0  0  0  0  0  0  0  0  0  0  0  0
    1.8107   -3.8597    0.0000 C   0  0  0  0  0  0  0  0  0  0  0  0
    1.8107   -2.3597    0.0000 C   0  0  0  0  0  0  0  0  0  0  0  0
    3.1965   -1.7857    0.0000 C   0  0  0  0  0  0  0  0  0  0  0  0
    3.3923   -0.2985    0.0000 O   0  0  0  0  0  0  0  0  0  0  0  0
    4.3865   -2.6988    0.0000 N   0  0  0  0  0  0  0  0  0  0  0  0
    5.7723   -2.1248    0.0000 C   0  0  0  0  0  0  0  0  0  0  0  0
    6.1225   -0.6662    0.0000 N   0  0  0  0  0  0  0  0  0  0  0  0
    7.6179   -0.5485    0.0000 N   0  0  0  0  0  0  0  0  0  0  0  0
    8.1919   -1.9344    0.0000 N   0  0  0  0  0  0  0  0  0  0  0  0
    7.0513   -2.9085    0.0000 N   0  0  0  0  0  0  0  0  0  0  0  0
    7.1690   -4.4039    0.0000 C   0  0  0  0  0  0  0  0  0  0  0  0
    8.4479   -5.1877    0.0000 C   0  0  0  0  0  0  0  0  0  0  0  0
    8.0978   -6.6462    0.0000 C   0  0  0  0  0  0  0  0  0  0  0  0
    6.6024   -6.7639    0.0000 C   0  0  0  0  0  0  0  0  0  0  0  0
    5.8186   -8.0429    0.0000 C   0  0  0  0  0  0  0  0  0  0  0  0
    6.5344   -9.3611    0.0000 O   0  0  0  0  0  0  0  0  0  0  0  0
    4.3192   -8.0036    0.0000 N   0  0  0  0  0  0  0  0  0  0  0  0
    3.5354   -9.2826    0.0000 C   0  0  0  0  0  0  0  0  0  0  0  0
    2.0359   -9.2433    0.0000 N   0  0  0  0  0  0  0  0  0  0  0  0
    1.2522  -10.5223    0.0000 N   0  0  0  0  0  0  0  0  0  0  0  0
    1.9679  -11.8405    0.0000 N   0  0  0  0  0  0  0  0  0  0  0  0
    3.4674  -11.8797    0.0000 N   0  0  0  0  0  0  0  0  0  0  0  0
    4.2512  -10.6008    0.0000 N   0  0  0  0  0  0  0  0  0  0  0  0
    6.0284   -5.3781    0.0000 C   0  0  0  0  0  0  0  0  0  0  0  0
    4.5698   -5.0279    0.0000 O   0  0  0  0  0  0  0  0  0  0  0  0
    0.7500   -1.2990    0.0000 C   0  0  0  0  0  0  0  0  0  0  0  0
    1.5000    0.0000    0.0000 C   0  0  0  0  0  0  0  0  0  0  0  0
    0.7500    1.2990    0.0000 C   0  0  0  0  0  0  0  0  0  0  0  0
   -0.7500    1.2990    0.0000 C   0  0  0  0  0  0  0  0  0  0  0  0
   -1.5000    2.5981    0.0000 O   0  0  0  0  0  0  0  0  0  0  0  0
   -1.5000    0.0000    0.0000 C   0  0  0  0  0  0  0  0  0  0  0  0
   -0.7500   -1.2990    0.0000 C   0  0  0  0  0  0  0  0  0  0  0  0
  1  2  1  0
  2  3  1  0
  3  4  1  0
  4  5  1  0
  5  6  1  0
  6  7  1  0
  7  8  1  0
  8  9  2  0
  8 10  1  0
 10 11  1  0
 11 12  2  0
 12 13  1  0
 13 14  2  0
 14 15  1  0
 15 16  1  0
 16 17  2  0
 17 18  1  0
 18 19  2  0
 19 20  1  0
 20 21  2  0
 20 22  1  0
 22 23  1  0
 23 24  2  0
 24 25  1  0
 25 26  2  0
 26 27  1  0
 27 28  2  0
 19 29  1  0
 29 30  2  0
  7 31  1  0
 31 32  2  0
 32 33  1  0
 33 34  2  0
 34 35  1  0
 34 36  1  0
 36 37  2  0
 37  2  1  0
 15 11  1  0
 29 16  1  0
 37 31  1  0
 28 23  1  0
M  END
>  <Title>  (461) 
idAAPUgen14

$$$$

     RDKit          2D

  9  9  0  0  0  0  0  0  0  0999 V2000
    5.0260   -1.2990    0.0000 C   0  0  0  0  0  0  0  0  0  0  0  0
    3.5260   -1.2990    0.0000 C   0  0  0  0  0  0  0  0  0  0  0  0
    2.7760   -2.5981    0.0000 O   0  0  0  0  0  0  0  0  0  0  0  0
    2.7760    0.0000    0.0000 N   0  0  0  0  0  0  0  0  0  0  0  0
    1.2760    0.0000    0.0000 C   0  0  0  0  0  0  0  0  0  0  0  0
    0.3943    1.2135    0.0000 C   0  0  0  0  0  0  0  0  0  0  0  0
   -1.0323    0.7500    0.0000 C   0  0  0  0  0  0  0  0  0  0  0  0
   -1.0323   -0.7500    0.0000 C   0  0  0  0  0  0  0  0  0  0  0  0
    0.3943   -1.2135    0.0000 N   0  0  0  0  0  0  0  0  0  0  0  0
  1  2  1  0
  2  3  2  0
  2  4  1  0
  4  5  1  0
  5  6  2  0
  6  7  1  0
  7  8  1  0
  8  9  2  0
  9  5  1  0
M  END
>  <Title>  (462) 
idAAPVgen14

$$$$

     RDKit          2D

 34 38  0  0  0  0  0  0  0  0999 V2000
   -3.0000   -2.5981    0.0000 C   0  0  0  0  0  0  0  0  0  0  0  0
   -1.5000   -2.5981    0.0000 C   0  0  0  0  0  0  0  0  0  0  0  0
   -0.7500   -3.8971    0.0000 C   0  0  0  0  0  0  0  0  0  0  0  0
    0.7500   -3.8971    0.0000 C   0  0  0  0  0  0  0  0  0  0  0  0
    1.5000   -2.5981    0.0000 C   0  0  0  0  0  0  0  0  0  0  0  0
    3.0000   -2.5981    0.0000 C   0  0  0  0  0  0  0  0  0  0  0  0
    3.7500   -1.2990    0.0000 O   0  0  0  0  0  0  0  0  0  0  0  0
    3.7500   -3.8971    0.0000 N   0  0  0  0  0  0  0  0  0  0  0  0
    5.2500   -3.8971    0.0000 C   0  0  0  0  0  0  0  0  0  0  0  0
    6.1317   -2.6836    0.0000 N   0  0  0  0  0  0  0  0  0  0  0  0
    7.5583   -3.1471    0.0000 N   0  0  0  0  0  0  0  0  0  0  0  0
    7.5583   -4.6471    0.0000 N   0  0  0  0  0  0  0  0  0  0  0  0
    6.1317   -5.1106    0.0000 N   0  0  0  0  0  0  0  0  0  0  0  0
    5.6682   -6.5372    0.0000 C   0  0  0  0  0  0  0  0  0  0  0  0
    6.5498   -7.7508    0.0000 C   0  0  0  0  0  0  0  0  0  0  0  0
    5.6682   -8.9643    0.0000 C   0  0  0  0  0  0  0  0  0  0  0  0
    4.2416   -8.5008    0.0000 N   0  0  0  0  0  0  0  0  0  0  0  0
    3.0280   -9.3824    0.0000 C   0  0  0  0  0  0  0  0  0  0  0  0
    3.1848  -10.8742    0.0000 O   0  0  0  0  0  0  0  0  0  0  0  0
    1.6577   -8.7723    0.0000 N   0  0  0  0  0  0  0  0  0  0  0  0
    0.4442   -9.6540    0.0000 C   0  0  0  0  0  0  0  0  0  0  0  0
   -0.9261   -9.0439    0.0000 N   0  0  0  0  0  0  0  0  0  0  0  0
   -2.1396   -9.9256    0.0000 N   0  0  0  0  0  0  0  0  0  0  0  0
   -1.9829  -11.4174    0.0000 N   0  0  0  0  0  0  0  0  0  0  0  0
   -0.6125  -12.0275    0.0000 N   0  0  0  0  0  0  0  0  0  0  0  0
    0.6010  -11.1458    0.0000 N   0  0  0  0  0  0  0  0  0  0  0  0
    4.2416   -7.0008    0.0000 C   0  0  0  0  0  0  0  0  0  0  0  0
    3.0280   -6.1191    0.0000 O   0  0  0  0  0  0  0  0  0  0  0  0
    0.7500   -1.2990    0.0000 C   0  0  0  0  0  0  0  0  0  0  0  0
    1.5000    0.0000    0.0000 C   0  0  0  0  0  0  0  0  0  0  0  0
    0.7500    1.2990    0.0000 C   0  0  0  0  0  0  0  0  0  0  0  0
   -0.7500    1.2990    0.0000 C   0  0  0  0  0  0  0  0  0  0  0  0
   -1.5000    0.0000    0.0000 C   0  0  0  0  0  0  0  0  0  0  0  0
   -0.7500   -1.2990    0.0000 C   0  0  0  0  0  0  0  0  0  0  0  0
  1  2  1  0
  2  3  2  0
  3  4  1  0
  4  5  2  0
  5  6  1  0
  6  7  2  0
  6  8  1  0
  8  9  1  0
  9 10  2  0
 10 11  1  0
 11 12  2  0
 12 13  1  0
 13 14  1  0
 14 15  1  0
 15 16  1  0
 16 17  1  0
 17 18  1  0
 18 19  2  0
 18 20  1  0
 20 21  1  0
 21 22  2  0
 22 23  1  0
 23 24  2  0
 24 25  1  0
 25 26  2  0
 17 27  1  0
 27 28  2  0
  5 29  1  0
 29 30  2  0
 30 31  1  0
 31 32  2  0
 32 33  1  0
 33 34  2  0
 34  2  1  0
 13  9  1  0
 27 14  1  0
 34 29  1  0
 26 21  1  0
M  END
>  <Title>  (463) 
idAAPWgen14

$$$$

     RDKit          2D

 43 48  0  0  0  0  0  0  0  0999 V2000
   -0.0718  -10.0721    0.0000 C   0  0  0  0  0  0  0  0  0  0  0  0
   -0.9849   -8.8820    0.0000 C   0  0  0  0  0  0  0  0  0  0  0  0
   -0.4109   -7.4962    0.0000 C   0  0  0  0  0  0  0  0  0  0  0  0
   -1.3240   -6.3062    0.0000 C   0  0  0  0  0  0  0  0  0  0  0  0
   -0.7500   -4.9204    0.0000 C   0  0  0  0  0  0  0  0  0  0  0  0
    0.7500   -4.9204    0.0000 C   0  0  0  0  0  0  0  0  0  0  0  0
    1.8107   -3.8597    0.0000 C   0  0  0  0  0  0  0  0  0  0  0  0
    1.8107   -2.3597    0.0000 C   0  0  0  0  0  0  0  0  0  0  0  0
    3.1965   -1.7857    0.0000 C   0  0  0  0  0  0  0  0  0  0  0  0
    3.3923   -0.2985    0.0000 O   0  0  0  0  0  0  0  0  0  0  0  0
    4.3865   -2.6988    0.0000 N   0  0  0  0  0  0  0  0  0  0  0  0
    5.7723   -2.1248    0.0000 C   0  0  0  0  0  0  0  0  0  0  0  0
    6.1225   -0.6662    0.0000 N   0  0  0  0  0  0  0  0  0  0  0  0
    7.6179   -0.5485    0.0000 N   0  0  0  0  0  0  0  0  0  0  0  0
    8.1919   -1.9344    0.0000 N   0  0  0  0  0  0  0  0  0  0  0  0
    7.0513   -2.9085    0.0000 N   0  0  0  0  0  0  0  0  0  0  0  0
    7.1690   -4.4039    0.0000 N   0  0  0  0  0  0  0  0  0  0  0  0
    8.4479   -5.1877    0.0000 C   0  0  0  0  0  0  0  0  0  0  0  0
    8.0978   -6.6462    0.0000 C   0  0  0  0  0  0  0  0  0  0  0  0
    6.6024   -6.7639    0.0000 N   0  0  0  0  0  0  0  0  0  0  0  0
    5.8186   -8.0429    0.0000 C   0  0  0  0  0  0  0  0  0  0  0  0
    6.5344   -9.3611    0.0000 O   0  0  0  0  0  0  0  0  0  0  0  0
    4.3192   -8.0036    0.0000 N   0  0  0  0  0  0  0  0  0  0  0  0
    3.5354   -9.2826    0.0000 C   0  0  0  0  0  0  0  0  0  0  0  0
    2.0359   -9.2433    0.0000 N   0  0  0  0  0  0  0  0  0  0  0  0
    1.2522  -10.5223    0.0000 N   0  0  0  0  0  0  0  0  0  0  0  0
    1.9679  -11.8405    0.0000 N   0  0  0  0  0  0  0  0  0  0  0  0
    3.4674  -11.8797    0.0000 N   0  0  0  0  0  0  0  0  0  0  0  0
    4.2512  -10.6008    0.0000 N   0  0  0  0  0  0  0  0  0  0  0  0
    6.0284   -5.3781    0.0000 C   0  0  0  0  0  0  0  0  0  0  0  0
    4.5698   -5.0279    0.0000 O   0  0  0  0  0  0  0  0  0  0  0  0
    0.7500   -1.2990    0.0000 C   0  0  0  0  0  0  0  0  0  0  0  0
    1.5000    0.0000    0.0000 C   0  0  0  0  0  0  0  0  0  0  0  0
    0.7500    1.2990    0.0000 C   0  0  0  0  0  0  0  0  0  0  0  0
   -0.7500    1.2990    0.0000 C   0  0  0  0  0  0  0  0  0  0  0  0
   -1.5000    0.0000    0.0000 C   0  0  0  0  0  0  0  0  0  0  0  0
   -0.7500   -1.2990    0.0000 C   0  0  0  0  0  0  0  0  0  0  0  0
   -1.8107   -2.3597    0.0000 C   0  0  0  0  0  0  0  0  0  0  0  0
   -3.1097   -1.6097    0.0000 C   0  0  0  0  0  0  0  0  0  0  0  0
   -4.4087   -2.3597    0.0000 C   0  0  0  0  0  0  0  0  0  0  0  0
   -4.4087   -3.8597    0.0000 C   0  0  0  0  0  0  0  0  0  0  0  0
   -3.1097   -4.6097    0.0000 C   0  0  0  0  0  0  0  0  0  0  0  0
   -1.8107   -3.8597    0.0000 C   0  0  0  0  0  0  0  0  0  0  0  0
  1  2  2  0
  2  3  1  0
  3  4  1  0
  4  5  1  0
  5  6  2  0
  6  7  1  0
  7  8  2  0
  8  9  1  0
  9 10  2  0
  9 11  1  0
 11 12  1  0
 12 13  2  0
 13 14  1  0
 14 15  2  0
 15 16  1  0
 16 17  1  0
 17 18  1  0
 18 19  1  0
 19 20  1  0
 20 21  1  0
 21 22  2  0
 21 23  1  0
 23 24  1  0
 24 25  2  0
 25 26  1  0
 26 27  2  0
 27 28  1  0
 28 29  2  0
 20 30  1  0
 30 31  2  0
  8 32  1  0
 32 33  2  0
 33 34  1  0
 34 35  2  0
 35 36  1  0
 36 37  2  0
 37 38  1  0
 38 39  2  0
 39 40  1  0
 40 41  2  0
 41 42  1  0
 42 43  2  0
 43  5  1  0
 16 12  1  0
 30 17  1  0
 37 32  1  0
 43 38  1  0
 29 24  1  0
M  END
>  <Title>  (464) 
idAAPXgen14

$$$$

     RDKit          2D

  5  4  0  0  0  0  0  0  0  0999 V2000
    0.0000    0.0000    0.0000 C   0  0  0  0  0  0  0  0  0  0  0  0
    1.2990    0.7500    0.0000 C   0  0  0  0  0  0  0  0  0  0  0  0
    2.5981   -0.0000    0.0000 C   0  0  0  0  0  0  0  0  0  0  0  0
    3.8971    0.7500    0.0000 N   0  0  0  0  0  0  0  0  0  0  0  0
    5.1962   -0.0000    0.0000 C   0  0  0  0  0  0  0  0  0  0  0  0
  1  2  1  0
  2  3  2  3
  3  4  1  0
  4  5  1  0
M  END
>  <Title>  (465) 
idAAPYgen14

$$$$

     RDKit          2D

 40 45  0  0  0  0  0  0  0  0999 V2000
   -1.3240   -6.3062    0.0000 C   0  0  0  0  0  0  0  0  0  0  0  0
   -0.7500   -4.9204    0.0000 C   0  0  0  0  0  0  0  0  0  0  0  0
    0.7500   -4.9204    0.0000 C   0  0  0  0  0  0  0  0  0  0  0  0
    1.8107   -3.8597    0.0000 C   0  0  0  0  0  0  0  0  0  0  0  0
    1.8107   -2.3597    0.0000 C   0  0  0  0  0  0  0  0  0  0  0  0
    3.1965   -1.7857    0.0000 C   0  0  0  0  0  0  0  0  0  0  0  0
    3.3923   -0.2985    0.0000 O   0  0  0  0  0  0  0  0  0  0  0  0
    4.3865   -2.6988    0.0000 N   0  0  0  0  0  0  0  0  0  0  0  0
    5.7723   -2.1248    0.0000 C   0  0  0  0  0  0  0  0  0  0  0  0
    6.1225   -0.6662    0.0000 N   0  0  0  0  0  0  0  0  0  0  0  0
    7.6179   -0.5485    0.0000 N   0  0  0  0  0  0  0  0  0  0  0  0
    8.1919   -1.9344    0.0000 N   0  0  0  0  0  0  0  0  0  0  0  0
    7.0513   -2.9085    0.0000 N   0  0  0  0  0  0  0  0  0  0  0  0
    7.1690   -4.4039    0.0000 C   0  0  0  0  0  0  0  0  0  0  0  0
    8.4479   -5.1877    0.0000 C   0  0  0  0  0  0  0  0  0  0  0  0
    8.0978   -6.6462    0.0000 C   0  0  0  0  0  0  0  0  0  0  0  0
    6.6024   -6.7639    0.0000 C   0  0  0  0  0  0  0  0  0  0  0  0
    5.8186   -8.0429    0.0000 C   0  0  0  0  0  0  0  0  0  0  0  0
    6.5344   -9.3611    0.0000 O   0  0  0  0  0  0  0  0  0  0  0  0
    4.3192   -8.0036    0.0000 N   0  0  0  0  0  0  0  0  0  0  0  0
    3.5354   -9.2826    0.0000 C   0  0  0  0  0  0  0  0  0  0  0  0
    2.0359   -9.2433    0.0000 N   0  0  0  0  0  0  0  0  0  0  0  0
    1.2522  -10.5223    0.0000 N   0  0  0  0  0  0  0  0  0  0  0  0
    1.9679  -11.8405    0.0000 N   0  0  0  0  0  0  0  0  0  0  0  0
    3.4674  -11.8797    0.0000 N   0  0  0  0  0  0  0  0  0  0  0  0
    4.2512  -10.6008    0.0000 N   0  0  0  0  0  0  0  0  0  0  0  0
    6.0284   -5.3781    0.0000 C   0  0  0  0  0  0  0  0  0  0  0  0
    4.5698   -5.0279    0.0000 O   0  0  0  0  0  0  0  0  0  0  0  0
    0.7500   -1.2990    0.0000 C   0  0  0  0  0  0  0  0  0  0  0  0
    1.5000    0.0000    0.0000 C   0  0  0  0  0  0  0  0  0  0  0  0
    0.7500    1.2990    0.0000 C   0  0  0  0  0  0  0  0  0  0  0  0
   -0.7500    1.2990    0.0000 C   0  0  0  0  0  0  0  0  0  0  0  0
   -1.5000    0.0000    0.0000 C   0  0  0  0  0  0  0  0  0  0  0  0
   -0.7500   -1.2990    0.0000 C   0  0  0  0  0  0  0  0  0  0  0  0
   -1.8107   -2.3597    0.0000 C   0  0  0  0  0  0  0  0  0  0  0  0
   -3.1097   -1.6097    0.0000 C   0  0  0  0  0  0  0  0  0  0  0  0
   -4.4087   -2.3597    0.0000 C   0  0  0  0  0  0  0  0  0  0  0  0
   -4.4087   -3.8597    0.0000 C   0  0  0  0  0  0  0  0  0  0  0  0
   -3.1097   -4.6097    0.0000 C   0  0  0  0  0  0  0  0  0  0  0  0
   -1.8107   -3.8597    0.0000 C   0  0  0  0  0  0  0  0  0  0  0  0
  1  2  1  0
  2  3  2  0
  3  4  1  0
  4  5  2  0
  5  6  1  0
  6  7  2  0
  6  8  1  0
  8  9  1  0
  9 10  2  0
 10 11  1  0
 11 12  2  0
 12 13  1  0
 13 14  1  0
 14 15  2  0
 15 16  1  0
 16 17  2  0
 17 18  1  0
 18 19  2  0
 18 20  1  0
 20 21  1  0
 21 22  2  0
 22 23  1  0
 23 24  2  0
 24 25  1  0
 25 26  2  0
 17 27  1  0
 27 28  2  0
  5 29  1  0
 29 30  2  0
 30 31  1  0
 31 32  2  0
 32 33  1  0
 33 34  2  0
 34 35  1  0
 35 36  2  0
 36 37  1  0
 37 38  2  0
 38 39  1  0
 39 40  2  0
 40  2  1  0
 13  9  1  0
 27 14  1  0
 34 29  1  0
 40 35  1  0
 26 21  1  0
M  END
>  <Title>  (466) 
idAAPZgen14

$$$$

     RDKit          2D

 12 11  0  0  0  0  0  0  0  0999 V2000
    0.0000    0.0000    0.0000 C   0  0  0  0  0  0  0  0  0  0  0  0
    1.2990    0.7500    0.0000 C   0  0  0  0  0  0  0  0  0  0  0  0
    2.5981   -0.0000    0.0000 C   0  0  0  0  0  0  0  0  0  0  0  0
    3.8971    0.7500    0.0000 C   0  0  0  0  0  0  0  0  0  0  0  0
    5.1962   -0.0000    0.0000 C   0  0  0  0  0  0  0  0  0  0  0  0
    3.8971    2.2500    0.0000 C   0  0  0  0  0  0  0  0  0  0  0  0
    5.1962    3.0000    0.0000 C   0  0  0  0  0  0  0  0  0  0  0  0
    5.1962    4.5000    0.0000 C   0  0  0  0  0  0  0  0  0  0  0  0
    6.4952    2.2500    0.0000 C   0  0  0  0  0  0  0  0  0  0  0  0
    7.7942    3.0000    0.0000 C   0  0  0  0  0  0  0  0  0  0  0  0
    9.0933    2.2500    0.0000 C   0  0  0  0  0  0  0  0  0  0  0  0
    7.7942    4.5000    0.0000 C   0  0  0  0  0  0  0  0  0  0  0  0
  1  2  1  0
  2  3  1  0
  3  4  1  0
  4  5  1  0
  4  6  1  0
  6  7  1  0
  7  8  1  0
  7  9  1  0
  9 10  1  0
 10 11  1  0
 10 12  1  0
M  END
>  <Title>  (467) 
idAAQAgen14

$$$$

     RDKit          2D

 42 47  0  0  0  0  0  0  0  0999 V2000
   -2.9289    3.1267    0.0000 C   0  0  0  0  0  0  0  0  0  0  0  0
   -3.6983    1.8391    0.0000 C   0  0  0  0  0  0  0  0  0  0  0  0
   -2.9678    0.5290    0.0000 C   0  0  0  0  0  0  0  0  0  0  0  0
   -3.7372   -0.7587    0.0000 C   0  0  0  0  0  0  0  0  0  0  0  0
   -5.2311   -0.8932    0.0000 C   0  0  0  0  0  0  0  0  0  0  0  0
   -5.5649   -2.3556    0.0000 C   0  0  0  0  0  0  0  0  0  0  0  0
   -4.2772   -3.1249    0.0000 N   0  0  0  0  0  0  0  0  0  0  0  0
   -3.1476   -2.1380    0.0000 N   0  0  0  0  0  0  0  0  0  0  0  0
   -1.6852   -2.4718    0.0000 C   0  0  0  0  0  0  0  0  0  0  0  0
   -1.3515   -3.9342    0.0000 C   0  0  0  0  0  0  0  0  0  0  0  0
   -0.0000   -4.5850    0.0000 C   0  0  0  0  0  0  0  0  0  0  0  0
    1.3515   -3.9342    0.0000 C   0  0  0  0  0  0  0  0  0  0  0  0
    1.6852   -2.4718    0.0000 C   0  0  0  0  0  0  0  0  0  0  0  0
    3.1476   -2.1380    0.0000 C   0  0  0  0  0  0  0  0  0  0  0  0
    3.5898   -0.7046    0.0000 O   0  0  0  0  0  0  0  0  0  0  0  0
    4.1679   -3.2376    0.0000 N   0  0  0  0  0  0  0  0  0  0  0  0
    5.6303   -2.9038    0.0000 C   0  0  0  0  0  0  0  0  0  0  0  0
    6.2198   -1.5245    0.0000 N   0  0  0  0  0  0  0  0  0  0  0  0
    7.7138   -1.6590    0.0000 N   0  0  0  0  0  0  0  0  0  0  0  0
    8.0476   -3.1214    0.0000 N   0  0  0  0  0  0  0  0  0  0  0  0
    6.7599   -3.8907    0.0000 N   0  0  0  0  0  0  0  0  0  0  0  0
    6.6254   -5.3847    0.0000 N   0  0  0  0  0  0  0  0  0  0  0  0
    7.7550   -6.3716    0.0000 C   0  0  0  0  0  0  0  0  0  0  0  0
    7.1655   -7.7509    0.0000 C   0  0  0  0  0  0  0  0  0  0  0  0
    5.6715   -7.6164    0.0000 N   0  0  0  0  0  0  0  0  0  0  0  0
    4.6846   -8.7460    0.0000 C   0  0  0  0  0  0  0  0  0  0  0  0
    5.1694  -10.1655    0.0000 O   0  0  0  0  0  0  0  0  0  0  0  0
    3.2129   -8.4561    0.0000 N   0  0  0  0  0  0  0  0  0  0  0  0
    2.2260   -9.5857    0.0000 C   0  0  0  0  0  0  0  0  0  0  0  0
    0.7543   -9.2959    0.0000 N   0  0  0  0  0  0  0  0  0  0  0  0
   -0.2326  -10.4255    0.0000 N   0  0  0  0  0  0  0  0  0  0  0  0
    0.2522  -11.8450    0.0000 N   0  0  0  0  0  0  0  0  0  0  0  0
    1.7239  -12.1348    0.0000 N   0  0  0  0  0  0  0  0  0  0  0  0
    2.7108  -11.0052    0.0000 N   0  0  0  0  0  0  0  0  0  0  0  0
    5.3378   -6.1540    0.0000 C   0  0  0  0  0  0  0  0  0  0  0  0
    3.9585   -5.5645    0.0000 O   0  0  0  0  0  0  0  0  0  0  0  0
    0.7500   -1.2990    0.0000 C   0  0  0  0  0  0  0  0  0  0  0  0
    1.5000    0.0000    0.0000 C   0  0  0  0  0  0  0  0  0  0  0  0
    0.7500    1.2990    0.0000 C   0  0  0  0  0  0  0  0  0  0  0  0
   -0.7500    1.2990    0.0000 C   0  0  0  0  0  0  0  0  0  0  0  0
   -1.5000    0.0000    0.0000 C   0  0  0  0  0  0  0  0  0  0  0  0
   -0.7500   -1.2990    0.0000 C   0  0  0  0  0  0  0  0  0  0  0  0
  1  2  1  0
  2  3  2  3
  3  4  1  0
  4  5  2  0
  5  6  1  0
  6  7  2  0
  7  8  1  0
  8  9  1  0
  9 10  2  0
 10 11  1  0
 11 12  1  0
 12 13  1  0
 13 14  1  0
 14 15  2  0
 14 16  1  0
 16 17  1  0
 17 18  2  0
 18 19  1  0
 19 20  2  0
 20 21  1  0
 21 22  1  0
 22 23  1  0
 23 24  1  0
 24 25  1  0
 25 26  1  0
 26 27  2  0
 26 28  1  0
 28 29  1  0
 29 30  2  0
 30 31  1  0
 31 32  2  0
 32 33  1  0
 33 34  2  0
 25 35  1  0
 35 36  2  0
 13 37  1  0
 37 38  2  0
 38 39  1  0
 39 40  2  0
 40 41  1  0
 41 42  2  0
  8  4  1  0
 42  9  1  0
 21 17  1  0
 35 22  1  0
 42 37  1  0
 34 29  1  0
M  END
>  <Title>  (468) 
idAAQBgen14

$$$$

     RDKit          2D

106107  0  0  0  0  0  0  0  0999 V2000
    9.6340   -4.4172    0.0000 C   0  0  0  0  0  0  0  0  0  0  0  0
   10.4301   -4.4574    0.0000 C   0  0  0  0  0  0  0  0  0  0  0  0
   10.4318   -5.9573    0.0000 C   0  0  0  0  0  0  0  0  0  0  0  0
   10.5877   -7.4492    0.0000 C   0  0  0  0  0  0  0  0  0  0  0  0
   10.8962   -8.9172    0.0000 C   0  0  0  0  0  0  0  0  0  0  0  0
   11.3539  -10.3456    0.0000 C   0  0  0  0  0  0  0  0  0  0  0  0
   11.9562  -11.7194    0.0000 C   0  0  0  0  0  0  0  0  0  0  0  0
   12.6965  -13.0240    0.0000 C   0  0  0  0  0  0  0  0  0  0  0  0
   13.5670  -14.2456    0.0000 C   0  0  0  0  0  0  0  0  0  0  0  0
   14.5584  -15.3712    0.0000 C   0  0  0  0  0  0  0  0  0  0  0  0
   15.6604  -16.3888    0.0000 C   0  0  0  0  0  0  0  0  0  0  0  0
   16.8612  -17.2878    0.0000 C   0  0  0  0  0  0  0  0  0  0  0  0
   18.1480  -18.0586    0.0000 C   0  0  0  0  0  0  0  0  0  0  0  0
   19.5073  -18.6929    0.0000 C   0  0  0  0  0  0  0  0  0  0  0  0
   20.9246  -19.1841    0.0000 C   0  0  0  0  0  0  0  0  0  0  0  0
   22.3848  -19.5270    0.0000 C   0  0  0  0  0  0  0  0  0  0  0  0
   23.8726  -19.7180    0.0000 C   0  0  0  0  0  0  0  0  0  0  0  0
   25.3722  -19.7549    0.0000 C   0  0  0  0  0  0  0  0  0  0  0  0
   26.8676  -19.6375    0.0000 C   0  0  0  0  0  0  0  0  0  0  0  0
   28.3430  -19.3669    0.0000 C   0  0  0  0  0  0  0  0  0  0  0  0
   29.7827  -18.9461    0.0000 C   0  0  0  0  0  0  0  0  0  0  0  0
   31.1716  -18.3794    0.0000 C   0  0  0  0  0  0  0  0  0  0  0  0
   32.4948  -17.6730    0.0000 C   0  0  0  0  0  0  0  0  0  0  0  0
   33.7384  -16.8342    0.0000 C   0  0  0  0  0  0  0  0  0  0  0  0
   34.8891  -15.8720    0.0000 C   0  0  0  0  0  0  0  0  0  0  0  0
   35.9348  -14.7966    0.0000 C   0  0  0  0  0  0  0  0  0  0  0  0
   36.8644  -13.6194    0.0000 C   0  0  0  0  0  0  0  0  0  0  0  0
   37.6681  -12.3529    0.0000 C   0  0  0  0  0  0  0  0  0  0  0  0
   38.3372  -11.0104    0.0000 C   0  0  0  0  0  0  0  0  0  0  0  0
   38.8648   -9.6062    0.0000 C   0  0  0  0  0  0  0  0  0  0  0  0
   39.2451   -8.1552    0.0000 C   0  0  0  0  0  0  0  0  0  0  0  0
   39.4743   -6.6728    0.0000 C   0  0  0  0  0  0  0  0  0  0  0  0
   39.5499   -5.1747    0.0000 C   0  0  0  0  0  0  0  0  0  0  0  0
   39.4710   -3.6768    0.0000 C   0  0  0  0  0  0  0  0  0  0  0  0
   39.2385   -2.1950    0.0000 C   0  0  0  0  0  0  0  0  0  0  0  0
   38.8548   -0.7448    0.0000 C   0  0  0  0  0  0  0  0  0  0  0  0
   38.3241    0.6581    0.0000 C   0  0  0  0  0  0  0  0  0  0  0  0
   37.6520    1.9991    0.0000 C   0  0  0  0  0  0  0  0  0  0  0  0
   36.8455    3.2639    0.0000 C   0  0  0  0  0  0  0  0  0  0  0  0
   35.9133    4.4390    0.0000 C   0  0  0  0  0  0  0  0  0  0  0  0
   34.8652    5.5121    0.0000 C   0  0  0  0  0  0  0  0  0  0  0  0
   33.7123    6.4717    0.0000 C   0  0  0  0  0  0  0  0  0  0  0  0
   32.4668    7.3076    0.0000 C   0  0  0  0  0  0  0  0  0  0  0  0
   31.1420    8.0111    0.0000 C   0  0  0  0  0  0  0  0  0  0  0  0
   29.7519    8.5747    0.0000 C   0  0  0  0  0  0  0  0  0  0  0  0
   28.3112    8.9923    0.0000 C   0  0  0  0  0  0  0  0  0  0  0  0
   26.8352    9.2595    0.0000 C   0  0  0  0  0  0  0  0  0  0  0  0
   25.3396    9.3736    0.0000 C   0  0  0  0  0  0  0  0  0  0  0  0
   23.8401    9.3333    0.0000 C   0  0  0  0  0  0  0  0  0  0  0  0
   22.3527    9.1391    0.0000 C   0  0  0  0  0  0  0  0  0  0  0  0
   20.8932    8.7929    0.0000 C   0  0  0  0  0  0  0  0  0  0  0  0
   19.4771    8.2985    0.0000 C   0  0  0  0  0  0  0  0  0  0  0  0
   18.1192    7.6611    0.0000 C   0  0  0  0  0  0  0  0  0  0  0  0
   16.8341    6.8875    0.0000 C   0  0  0  0  0  0  0  0  0  0  0  0
   15.6354    5.9858    0.0000 C   0  0  0  0  0  0  0  0  0  0  0  0
   14.5357    4.9657    0.0000 C   0  0  0  0  0  0  0  0  0  0  0  0
   13.5467    3.8379    0.0000 C   0  0  0  0  0  0  0  0  0  0  0  0
   12.6789    2.6144    0.0000 C   0  0  0  0  0  0  0  0  0  0  0  0
   11.9416    1.3081    0.0000 C   0  0  0  0  0  0  0  0  0  0  0  0
   11.3424   -0.0670    0.0000 C   0  0  0  0  0  0  0  0  0  0  0  0
   10.8879   -1.4965    0.0000 C   0  0  0  0  0  0  0  0  0  0  0  0
   10.2902   -0.0000    0.0000 C   0  0  0  0  0  0  0  0  0  0  0  0
   10.1944    1.4012    0.0000 C   0  0  0  0  0  0  0  0  0  0  0  0
    9.9086    2.7763    0.0000 C   0  0  0  0  0  0  0  0  0  0  0  0
    9.4383    4.0996    0.0000 C   0  0  0  0  0  0  0  0  0  0  0  0
    8.7922    5.3466    0.0000 C   0  0  0  0  0  0  0  0  0  0  0  0
    7.9822    6.4940    0.0000 C   0  0  0  0  0  0  0  0  0  0  0  0
    7.0236    7.5205    0.0000 C   0  0  0  0  0  0  0  0  0  0  0  0
    5.9342    8.4068    0.0000 C   0  0  0  0  0  0  0  0  0  0  0  0
    4.7342    9.1365    0.0000 C   0  0  0  0  0  0  0  0  0  0  0  0
    3.4460    9.6961    0.0000 C   0  0  0  0  0  0  0  0  0  0  0  0
    2.0936   10.0750    0.0000 C   0  0  0  0  0  0  0  0  0  0  0  0
    0.7022   10.2662    0.0000 C   0  0  0  0  0  0  0  0  0  0  0  0
   -0.7022   10.2662    0.0000 C   0  0  0  0  0  0  0  0  0  0  0  0
   -2.0936   10.0750    0.0000 C   0  0  0  0  0  0  0  0  0  0  0  0
   -3.4460    9.6961    0.0000 C   0  0  0  0  0  0  0  0  0  0  0  0
   -4.7342    9.1365    0.0000 C   0  0  0  0  0  0  0  0  0  0  0  0
   -5.9342    8.4068    0.0000 C   0  0  0  0  0  0  0  0  0  0  0  0
   -7.0236    7.5205    0.0000 C   0  0  0  0  0  0  0  0  0  0  0  0
   -7.9822    6.4940    0.0000 C   0  0  0  0  0  0  0  0  0  0  0  0
   -8.7922    5.3466    0.0000 C   0  0  0  0  0  0  0  0  0  0  0  0
   -9.4383    4.0996    0.0000 C   0  0  0  0  0  0  0  0  0  0  0  0
   -9.9086    2.7763    0.0000 C   0  0  0  0  0  0  0  0  0  0  0  0
  -10.1944    1.4012    0.0000 C   0  0  0  0  0  0  0  0  0  0  0  0
  -10.2902    0.0000    0.0000 C   0  0  0  0  0  0  0  0  0  0  0  0
  -10.1944   -1.4012    0.0000 C   0  0  0  0  0  0  0  0  0  0  0  0
   -9.9086   -2.7763    0.0000 C   0  0  0  0  0  0  0  0  0  0  0  0
   -9.4383   -4.0996    0.0000 C   0  0  0  0  0  0  0  0  0  0  0  0
   -8.7922   -5.3466    0.0000 C   0  0  0  0  0  0  0  0  0  0  0  0
   -7.9822   -6.4940    0.0000 C   0  0  0  0  0  0  0  0  0  0  0  0
   -7.0236   -7.5205    0.0000 C   0  0  0  0  0  0  0  0  0  0  0  0
   -5.9342   -8.4068    0.0000 C   0  0  0  0  0  0  0  0  0  0  0  0
   -4.7342   -9.1365    0.0000 C   0  0  0  0  0  0  0  0  0  0  0  0
   -3.4460   -9.6961    0.0000 C   0  0  0  0  0  0  0  0  0  0  0  0
   -2.0936  -10.0750    0.0000 C   0  0  0  0  0  0  0  0  0  0  0  0
   -0.7022  -10.2662    0.0000 C   0  0  0  0  0  0  0  0  0  0  0  0
    0.7022  -10.2662    0.0000 C   0  0  0  0  0  0  0  0  0  0  0  0
    2.0936  -10.0750    0.0000 C   0  0  0  0  0  0  0  0  0  0  0  0
    3.4460   -9.6961    0.0000 C   0  0  0  0  0  0  0  0  0  0  0  0
    4.7342   -9.1365    0.0000 C   0  0  0  0  0  0  0  0  0  0  0  0
    5.9342   -8.4068    0.0000 C   0  0  0  0  0  0  0  0  0  0  0  0
    7.0236   -7.5205    0.0000 C   0  0  0  0  0  0  0  0  0  0  0  0
    7.9822   -6.4940    0.0000 C   0  0  0  0  0  0  0  0  0  0  0  0
    8.7922   -5.3466    0.0000 C   0  0  0  0  0  0  0  0  0  0  0  0
    9.4383   -4.0996    0.0000 C   0  0  0  0  0  0  0  0  0  0  0  0
   10.5827   -2.9651    0.0000 C   0  0  0  0  0  0  0  0  0  0  0  0
  1  2  1  0
  2  3  1  0
  3  4  1  0
  4  5  1  0
  5  6  1  0
  6  7  1  0
  7  8  1  0
  8  9  1  0
  9 10  1  0
 10 11  1  0
 11 12  1  0
 12 13  1  0
 13 14  1  0
 14 15  1  0
 15 16  1  0
 16 17  1  0
 17 18  1  0
 18 19  1  0
 19 20  1  0
 20 21  1  0
 21 22  1  0
 22 23  1  0
 23 24  1  0
 24 25  1  0
 25 26  1  0
 26 27  1  0
 27 28  1  0
 28 29  1  0
 29 30  1  0
 30 31  1  0
 31 32  1  0
 32 33  1  0
 33 34  1  0
 34 35  1  0
 35 36  1  0
 36 37  1  0
 37 38  1  0
 38 39  1  0
 39 40  1  0
 40 41  1  0
 41 42  1  0
 42 43  1  0
 43 44  1  0
 44 45  1  0
 45 46  1  0
 46 47  1  0
 47 48  1  0
 48 49  1  0
 49 50  1  0
 50 51  1  0
 51 52  1  0
 52 53  1  0
 53 54  1  0
 54 55  1  0
 55 56  1  0
 56 57  1  0
 57 58  1  0
 58 59  1  0
 59 60  1  0
 60 61  1  0
 61 62  1  0
 62 63  1  0
 63 64  1  0
 64 65  1  0
 65 66  1  0
 66 67  1  0
 67 68  1  0
 68 69  1  0
 69 70  1  0
 70 71  1  0
 71 72  1  0
 72 73  1  0
 73 74  1  0
 74 75  1  0
 75 76  1  0
 76 77  1  0
 77 78  1  0
 78 79  1  0
 79 80  1  0
 80 81  1  0
 81 82  1  0
 82 83  1  0
 83 84  1  0
 84 85  1  0
 85 86  1  0
 86 87  1  0
 87 88  1  0
 88 89  1  0
 89 90  1  0
 90 91  1  0
 91 92  1  0
 92 93  1  0
 93 94  1  0
 94 95  1  0
 95 96  1  0
 96 97  1  0
 97 98  1  0
 98 99  1  0
 99100  1  0
100101  1  0
101102  2  0
102103  1  0
103104  2  0
104105  1  0
105106  2  0
106  2  1  0
106 61  1  0
M  END
>  <Title>  (469) 
idAAQCgen14

$$$$

     RDKit          2D

  7  7  0  0  0  0  0  0  0  0999 V2000
    4.2760   -0.0000    0.0000 N   0  0  0  0  0  0  0  0  0  0  0  0
    2.7760    0.0000    0.0000 C   0  0  0  0  0  0  0  0  0  0  0  0
    1.2760    0.0000    0.0000 C   0  0  0  0  0  0  0  0  0  0  0  0
    0.3943    1.2135    0.0000 C   0  0  0  0  0  0  0  0  0  0  0  0
   -1.0323    0.7500    0.0000 C   0  0  0  0  0  0  0  0  0  0  0  0
   -1.0323   -0.7500    0.0000 C   0  0  0  0  0  0  0  0  0  0  0  0
    0.3943   -1.2135    0.0000 C   0  0  0  0  0  0  0  0  0  0  0  0
  1  2  3  0
  2  3  1  0
  3  4  2  0
  4  5  1  0
  5  6  2  0
  6  7  2  0
  7  3  1  0
M  END
>  <Title>  (470) 
idAAQDgen14

$$$$

     RDKit          2D

 11 10  0  0  0  0  0  0  0  0999 V2000
    0.0000    0.0000    0.0000 C   0  0  0  0  0  0  0  0  0  0  0  0
   -0.0000   -1.5000    0.0000 C   0  0  0  0  0  0  0  0  0  0  0  0
   -0.0000   -3.0000    0.0000 C   0  0  0  0  0  0  0  0  0  0  0  0
   -0.0000   -4.5000    0.0000 C   0  0  0  0  0  0  0  0  0  0  0  0
   -0.0000   -6.0000    0.0000 C   0  0  0  0  0  0  0  0  0  0  0  0
   -0.0000   -7.5000    0.0000 C   0  0  0  0  0  0  0  0  0  0  0  0
   -0.0000   -9.0000    0.0000 C   0  0  0  0  0  0  0  0  0  0  0  0
   -0.0000  -10.5000    0.0000 C   0  0  0  0  0  0  0  0  0  0  0  0
   -0.0000  -12.0000    0.0000 C   0  0  0  0  0  0  0  0  0  0  0  0
    1.2990  -12.7500    0.0000 C   0  0  0  0  0  0  0  0  0  0  0  0
   -1.2990  -12.7500    0.0000 C   0  0  0  0  0  0  0  0  0  0  0  0
  1  2  3  0
  2  3  1  0
  3  4  3  0
  4  5  1  0
  5  6  3  0
  6  7  1  0
  7  8  3  0
  8  9  1  0
  9 10  1  0
  9 11  1  0
M  END
>  <Title>  (471) 
idAAQEgen14

$$$$

     RDKit          2D

  8  7  0  0  0  0  0  0  0  0999 V2000
    0.0000    0.0000    0.0000 C   0  0  0  0  0  0  0  0  0  0  0  0
    1.2990    0.7500    0.0000 N   0  0  0  0  0  0  0  0  0  0  0  0
    2.5981   -0.0000    0.0000 C   0  0  0  0  0  0  0  0  0  0  0  0
    2.5981   -1.5000    0.0000 O   0  0  0  0  0  0  0  0  0  0  0  0
    3.8971    0.7500    0.0000 C   0  0  0  0  0  0  0  0  0  0  0  0
    5.1962   -0.0000    0.0000 C   0  0  0  0  0  0  0  0  0  0  0  0
    6.4952    0.7500    0.0000 C   0  0  0  0  0  0  0  0  0  0  0  0
    5.1962   -1.5000    0.0000 C   0  0  0  0  0  0  0  0  0  0  0  0
  1  2  1  0
  2  3  1  0
  3  4  1  0
  3  5  1  0
  5  6  1  0
  6  7  1  0
  6  8  1  0
M  END
>  <Title>  (472) 
idAAQFgen14

$$$$

     RDKit          2D

  4  3  0  0  0  0  0  0  0  0999 V2000
    0.0000    0.0000    0.0000 C   0  0  0  0  0  0  0  0  0  0  0  0
    1.2990    0.7500    0.0000 C   0  0  0  0  0  0  0  0  0  0  0  0
    2.5981   -0.0000    0.0000 N   0  0  0  0  0  0  0  0  0  0  0  0
    3.8971    0.7500    0.0000 C   0  0  0  0  0  0  0  0  0  0  0  0
  1  2  2  0
  2  3  1  0
  3  4  1  0
M  END
>  <Title>  (473) 
idAAQGgen14

$$$$

     RDKit          2D

 39 44  0  0  0  0  0  0  0  0999 V2000
   -3.4182    0.0420    0.0000 C   0  0  0  0  0  0  0  0  0  0  0  0
   -3.8817   -1.3846    0.0000 C   0  0  0  0  0  0  0  0  0  0  0  0
   -5.3083   -1.8481    0.0000 C   0  0  0  0  0  0  0  0  0  0  0  0
   -5.3083   -3.3481    0.0000 C   0  0  0  0  0  0  0  0  0  0  0  0
   -3.8817   -3.8116    0.0000 N   0  0  0  0  0  0  0  0  0  0  0  0
   -3.0000   -2.5981    0.0000 N   0  0  0  0  0  0  0  0  0  0  0  0
   -1.5000   -2.5981    0.0000 C   0  0  0  0  0  0  0  0  0  0  0  0
   -0.7500   -3.8971    0.0000 C   0  0  0  0  0  0  0  0  0  0  0  0
    0.7500   -3.8971    0.0000 C   0  0  0  0  0  0  0  0  0  0  0  0
    1.5000   -2.5981    0.0000 C   0  0  0  0  0  0  0  0  0  0  0  0
    3.0000   -2.5981    0.0000 C   0  0  0  0  0  0  0  0  0  0  0  0
    3.7500   -1.2990    0.0000 O   0  0  0  0  0  0  0  0  0  0  0  0
    3.7500   -3.8971    0.0000 N   0  0  0  0  0  0  0  0  0  0  0  0
    5.2500   -3.8971    0.0000 C   0  0  0  0  0  0  0  0  0  0  0  0
    6.1317   -2.6836    0.0000 N   0  0  0  0  0  0  0  0  0  0  0  0
    7.5583   -3.1471    0.0000 N   0  0  0  0  0  0  0  0  0  0  0  0
    7.5583   -4.6471    0.0000 N   0  0  0  0  0  0  0  0  0  0  0  0
    6.1317   -5.1106    0.0000 N   0  0  0  0  0  0  0  0  0  0  0  0
    5.6682   -6.5372    0.0000 N   0  0  0  0  0  0  0  0  0  0  0  0
    6.5498   -7.7508    0.0000 C   0  0  0  0  0  0  0  0  0  0  0  0
    5.6682   -8.9643    0.0000 C   0  0  0  0  0  0  0  0  0  0  0  0
    4.2416   -8.5008    0.0000 N   0  0  0  0  0  0  0  0  0  0  0  0
    3.0280   -9.3824    0.0000 C   0  0  0  0  0  0  0  0  0  0  0  0
    3.1848  -10.8742    0.0000 O   0  0  0  0  0  0  0  0  0  0  0  0
    1.6577   -8.7723    0.0000 N   0  0  0  0  0  0  0  0  0  0  0  0
    0.4442   -9.6540    0.0000 C   0  0  0  0  0  0  0  0  0  0  0  0
   -0.9261   -9.0439    0.0000 N   0  0  0  0  0  0  0  0  0  0  0  0
   -2.1396   -9.9256    0.0000 N   0  0  0  0  0  0  0  0  0  0  0  0
   -1.9829  -11.4174    0.0000 N   0  0  0  0  0  0  0  0  0  0  0  0
   -0.6125  -12.0275    0.0000 N   0  0  0  0  0  0  0  0  0  0  0  0
    0.6010  -11.1458    0.0000 N   0  0  0  0  0  0  0  0  0  0  0  0
    4.2416   -7.0008    0.0000 C   0  0  0  0  0  0  0  0  0  0  0  0
    3.0280   -6.1191    0.0000 O   0  0  0  0  0  0  0  0  0  0  0  0
    0.7500   -1.2990    0.0000 C   0  0  0  0  0  0  0  0  0  0  0  0
    1.5000    0.0000    0.0000 C   0  0  0  0  0  0  0  0  0  0  0  0
    0.7500    1.2990    0.0000 C   0  0  0  0  0  0  0  0  0  0  0  0
   -0.7500    1.2990    0.0000 C   0  0  0  0  0  0  0  0  0  0  0  0
   -1.5000    0.0000    0.0000 C   0  0  0  0  0  0  0  0  0  0  0  0
   -0.7500   -1.2990    0.0000 C   0  0  0  0  0  0  0  0  0  0  0  0
  1  2  1  0
  2  3  2  0
  3  4  1  0
  4  5  2  0
  5  6  1  0
  6  7  1  0
  7  8  2  0
  8  9  1  0
  9 10  2  0
 10 11  1  0
 11 12  2  0
 11 13  1  0
 13 14  1  0
 14 15  2  0
 15 16  1  0
 16 17  2  0
 17 18  1  0
 18 19  1  0
 19 20  1  0
 20 21  1  0
 21 22  1  0
 22 23  1  0
 23 24  2  0
 23 25  1  0
 25 26  1  0
 26 27  2  0
 27 28  1  0
 28 29  2  0
 29 30  1  0
 30 31  2  0
 22 32  1  0
 32 33  2  0
 10 34  1  0
 34 35  2  0
 35 36  1  0
 36 37  2  0
 37 38  1  0
 38 39  2  0
  6  2  1  0
 39  7  1  0
 18 14  1  0
 32 19  1  0
 39 34  1  0
 31 26  1  0
M  END
>  <Title>  (474) 
idAAQHgen14

$$$$

     RDKit          2D

 39 44  0  0  0  0  0  0  0  0999 V2000
   -0.0000   -6.0850    0.0000 C   0  0  0  0  0  0  0  0  0  0  0  0
   -0.0000   -4.5850    0.0000 C   0  0  0  0  0  0  0  0  0  0  0  0
    1.3515   -3.9342    0.0000 C   0  0  0  0  0  0  0  0  0  0  0  0
    1.6852   -2.4718    0.0000 C   0  0  0  0  0  0  0  0  0  0  0  0
    3.1476   -2.1380    0.0000 C   0  0  0  0  0  0  0  0  0  0  0  0
    3.5898   -0.7046    0.0000 O   0  0  0  0  0  0  0  0  0  0  0  0
    4.1679   -3.2376    0.0000 N   0  0  0  0  0  0  0  0  0  0  0  0
    5.6303   -2.9038    0.0000 C   0  0  0  0  0  0  0  0  0  0  0  0
    6.2198   -1.5245    0.0000 N   0  0  0  0  0  0  0  0  0  0  0  0
    7.7138   -1.6590    0.0000 N   0  0  0  0  0  0  0  0  0  0  0  0
    8.0476   -3.1214    0.0000 N   0  0  0  0  0  0  0  0  0  0  0  0
    6.7599   -3.8907    0.0000 N   0  0  0  0  0  0  0  0  0  0  0  0
    6.6254   -5.3847    0.0000 N   0  0  0  0  0  0  0  0  0  0  0  0
    7.7550   -6.3716    0.0000 C   0  0  0  0  0  0  0  0  0  0  0  0
    7.1655   -7.7509    0.0000 C   0  0  0  0  0  0  0  0  0  0  0  0
    5.6715   -7.6164    0.0000 N   0  0  0  0  0  0  0  0  0  0  0  0
    4.6846   -8.7460    0.0000 C   0  0  0  0  0  0  0  0  0  0  0  0
    5.1694  -10.1655    0.0000 O   0  0  0  0  0  0  0  0  0  0  0  0
    3.2129   -8.4561    0.0000 N   0  0  0  0  0  0  0  0  0  0  0  0
    2.2260   -9.5857    0.0000 C   0  0  0  0  0  0  0  0  0  0  0  0
    0.7543   -9.2959    0.0000 N   0  0  0  0  0  0  0  0  0  0  0  0
   -0.2326  -10.4255    0.0000 N   0  0  0  0  0  0  0  0  0  0  0  0
    0.2522  -11.8450    0.0000 N   0  0  0  0  0  0  0  0  0  0  0  0
    1.7239  -12.1348    0.0000 N   0  0  0  0  0  0  0  0  0  0  0  0
    2.7108  -11.0052    0.0000 N   0  0  0  0  0  0  0  0  0  0  0  0
    5.3378   -6.1540    0.0000 C   0  0  0  0  0  0  0  0  0  0  0  0
    3.9585   -5.5645    0.0000 O   0  0  0  0  0  0  0  0  0  0  0  0
    0.7500   -1.2990    0.0000 C   0  0  0  0  0  0  0  0  0  0  0  0
    1.5000    0.0000    0.0000 C   0  0  0  0  0  0  0  0  0  0  0  0
    0.7500    1.2990    0.0000 C   0  0  0  0  0  0  0  0  0  0  0  0
   -0.7500    1.2990    0.0000 C   0  0  0  0  0  0  0  0  0  0  0  0
   -1.5000    0.0000    0.0000 C   0  0  0  0  0  0  0  0  0  0  0  0
   -0.7500   -1.2990    0.0000 C   0  0  0  0  0  0  0  0  0  0  0  0
   -1.6852   -2.4718    0.0000 C   0  0  0  0  0  0  0  0  0  0  0  0
   -3.1186   -2.0297    0.0000 C   0  0  0  0  0  0  0  0  0  0  0  0
   -4.2182   -3.0499    0.0000 C   0  0  0  0  0  0  0  0  0  0  0  0
   -3.8844   -4.5123    0.0000 C   0  0  0  0  0  0  0  0  0  0  0  0
   -2.4510   -4.9544    0.0000 C   0  0  0  0  0  0  0  0  0  0  0  0
   -1.3515   -3.9342    0.0000 C   0  0  0  0  0  0  0  0  0  0  0  0
  1  2  1  0
  2  3  2  0
  3  4  1  0
  4  5  1  0
  5  6  2  0
  5  7  1  0
  7  8  1  0
  8  9  2  0
  9 10  1  0
 10 11  2  0
 11 12  1  0
 12 13  1  0
 13 14  1  0
 14 15  1  0
 15 16  1  0
 16 17  1  0
 17 18  2  0
 17 19  1  0
 19 20  1  0
 20 21  2  0
 21 22  1  0
 22 23  2  0
 23 24  1  0
 24 25  2  0
 16 26  1  0
 26 27  2  0
  4 28  1  0
 28 29  2  0
 29 30  1  0
 30 31  2  0
 31 32  1  0
 32 33  2  0
 33 34  1  0
 34 35  2  0
 35 36  1  0
 36 37  2  0
 37 38  1  0
 38 39  2  0
 39  2  1  0
 12  8  1  0
 26 13  1  0
 33 28  1  0
 39 34  1  0
 25 20  1  0
M  END
>  <Title>  (475) 
idAAQIgen14

$$$$

     RDKit          2D

 10  9  0  0  0  0  0  0  0  0999 V2000
    0.0000    0.0000    0.0000 C   0  0  0  0  0  0  0  0  0  0  0  0
    1.2990    0.7500    0.0000 C   0  0  0  0  0  0  0  0  0  0  0  0
    2.5981   -0.0000    0.0000 C   0  0  0  0  0  0  0  0  0  0  0  0
    3.8971    0.7500    0.0000 C   0  0  0  0  0  0  0  0  0  0  0  0
    5.1962   -0.0000    0.0000 C   0  0  0  0  0  0  0  0  0  0  0  0
    6.4952    0.7500    0.0000 C   0  0  0  0  0  0  0  0  0  0  0  0
    7.7942   -0.0000    0.0000 C   0  0  0  0  0  0  0  0  0  0  0  0
    9.0933    0.7500    0.0000 C   0  0  0  0  0  0  0  0  0  0  0  0
    7.7942   -1.5000    0.0000 N   0  0  0  0  0  0  0  0  0  0  0  0
    9.0933   -2.2500    0.0000 C   0  0  0  0  0  0  0  0  0  0  0  0
  1  2  1  0
  2  3  2  3
  3  4  1  0
  4  5  1  0
  5  6  1  0
  6  7  1  0
  7  8  1  0
  7  9  1  0
  9 10  1  0
M  END
>  <Title>  (476) 
idAAQJgen14

$$$$

     RDKit          2D

  7  7  0  0  0  0  0  0  0  0999 V2000
    3.0000    0.0000    0.0000 C   0  0  0  0  0  0  0  0  0  0  0  0
    1.5000    0.0000    0.0000 C   0  0  0  0  0  0  0  0  0  0  0  0
    0.7500   -1.2990    0.0000 C   0  0  0  0  0  0  0  0  0  0  0  0
   -0.7500   -1.2990    0.0000 C   0  0  0  0  0  0  0  0  0  0  0  0
   -1.5000    0.0000    0.0000 C   0  0  0  0  0  0  0  0  0  0  0  0
   -0.7500    1.2990    0.0000 C   0  0  0  0  0  0  0  0  0  0  0  0
    0.7500    1.2990    0.0000 C   0  0  0  0  0  0  0  0  0  0  0  0
  1  2  1  0
  2  3  1  0
  3  4  2  0
  4  5  1  0
  5  6  2  0
  6  7  1  0
  7  2  1  0
M  END
>  <Title>  (477) 
idAAQKgen14

$$$$

     RDKit          2D

 36 40  0  0  0  0  0  0  0  0999 V2000
   -3.1965   -1.7857    0.0000 C   0  0  0  0  0  0  0  0  0  0  0  0
   -1.8107   -2.3597    0.0000 C   0  0  0  0  0  0  0  0  0  0  0  0
   -1.8107   -3.8597    0.0000 C   0  0  0  0  0  0  0  0  0  0  0  0
   -0.7500   -4.9204    0.0000 C   0  0  0  0  0  0  0  0  0  0  0  0
    0.7500   -4.9204    0.0000 C   0  0  0  0  0  0  0  0  0  0  0  0
    1.8107   -3.8597    0.0000 C   0  0  0  0  0  0  0  0  0  0  0  0
    1.8107   -2.3597    0.0000 C   0  0  0  0  0  0  0  0  0  0  0  0
    3.1965   -1.7857    0.0000 C   0  0  0  0  0  0  0  0  0  0  0  0
    3.3923   -0.2985    0.0000 O   0  0  0  0  0  0  0  0  0  0  0  0
    4.3865   -2.6988    0.0000 N   0  0  0  0  0  0  0  0  0  0  0  0
    5.7723   -2.1248    0.0000 C   0  0  0  0  0  0  0  0  0  0  0  0
    6.1225   -0.6662    0.0000 N   0  0  0  0  0  0  0  0  0  0  0  0
    7.6179   -0.5485    0.0000 N   0  0  0  0  0  0  0  0  0  0  0  0
    8.1919   -1.9344    0.0000 N   0  0  0  0  0  0  0  0  0  0  0  0
    7.0513   -2.9085    0.0000 N   0  0  0  0  0  0  0  0  0  0  0  0
    7.1690   -4.4039    0.0000 C   0  0  0  0  0  0  0  0  0  0  0  0
    8.4479   -5.1877    0.0000 C   0  0  0  0  0  0  0  0  0  0  0  0
    8.0978   -6.6462    0.0000 C   0  0  0  0  0  0  0  0  0  0  0  0
    6.6024   -6.7639    0.0000 C   0  0  0  0  0  0  0  0  0  0  0  0
    5.8186   -8.0429    0.0000 C   0  0  0  0  0  0  0  0  0  0  0  0
    6.5344   -9.3611    0.0000 O   0  0  0  0  0  0  0  0  0  0  0  0
    4.3192   -8.0036    0.0000 N   0  0  0  0  0  0  0  0  0  0  0  0
    3.5354   -9.2826    0.0000 C   0  0  0  0  0  0  0  0  0  0  0  0
    2.0359   -9.2433    0.0000 N   0  0  0  0  0  0  0  0  0  0  0  0
    1.2522  -10.5223    0.0000 N   0  0  0  0  0  0  0  0  0  0  0  0
    1.9679  -11.8405    0.0000 N   0  0  0  0  0  0  0  0  0  0  0  0
    3.4674  -11.8797    0.0000 N   0  0  0  0  0  0  0  0  0  0  0  0
    4.2512  -10.6008    0.0000 N   0  0  0  0  0  0  0  0  0  0  0  0
    6.0284   -5.3781    0.0000 C   0  0  0  0  0  0  0  0  0  0  0  0
    4.5698   -5.0279    0.0000 O   0  0  0  0  0  0  0  0  0  0  0  0
    0.7500   -1.2990    0.0000 C   0  0  0  0  0  0  0  0  0  0  0  0
    1.5000    0.0000    0.0000 C   0  0  0  0  0  0  0  0  0  0  0  0
    0.7500    1.2990    0.0000 C   0  0  0  0  0  0  0  0  0  0  0  0
   -0.7500    1.2990    0.0000 C   0  0  0  0  0  0  0  0  0  0  0  0
   -1.5000    0.0000    0.0000 C   0  0  0  0  0  0  0  0  0  0  0  0
   -0.7500   -1.2990    0.0000 C   0  0  0  0  0  0  0  0  0  0  0  0
  1  2  1  0
  2  3  1  0
  3  4  2  0
  4  5  1  0
  5  6  1  0
  6  7  1  0
  7  8  1  0
  8  9  2  0
  8 10  1  0
 10 11  1  0
 11 12  2  0
 12 13  1  0
 13 14  2  0
 14 15  1  0
 15 16  1  0
 16 17  2  0
 17 18  1  0
 18 19  2  0
 19 20  1  0
 20 21  2  0
 20 22  1  0
 22 23  1  0
 23 24  2  0
 24 25  1  0
 25 26  2  0
 26 27  1  0
 27 28  2  0
 19 29  1  0
 29 30  2  0
  7 31  1  0
 31 32  2  0
 32 33  1  0
 33 34  2  0
 34 35  1  0
 35 36  2  0
 36  2  1  0
 15 11  1  0
 29 16  1  0
 36 31  1  0
 28 23  1  0
M  END
>  <Title>  (478) 
idAAQLgen14

$$$$

     RDKit          2D

 28 31  0  0  0  0  0  0  0  0999 V2000
   -3.1476   -2.1380    0.0000 C   0  0  0  0  0  0  0  0  0  0  0  0
   -1.6852   -2.4718    0.0000 C   0  0  0  0  0  0  0  0  0  0  0  0
   -1.3515   -3.9342    0.0000 C   0  0  0  0  0  0  0  0  0  0  0  0
   -0.0000   -4.5850    0.0000 C   0  0  0  0  0  0  0  0  0  0  0  0
    1.3515   -3.9342    0.0000 C   0  0  0  0  0  0  0  0  0  0  0  0
    1.6852   -2.4718    0.0000 C   0  0  0  0  0  0  0  0  0  0  0  0
    3.1476   -2.1380    0.0000 C   0  0  0  0  0  0  0  0  0  0  0  0
    3.5898   -0.7046    0.0000 O   0  0  0  0  0  0  0  0  0  0  0  0
    4.1679   -3.2376    0.0000 N   0  0  0  0  0  0  0  0  0  0  0  0
    5.6303   -2.9038    0.0000 C   0  0  0  0  0  0  0  0  0  0  0  0
    6.2198   -1.5245    0.0000 N   0  0  0  0  0  0  0  0  0  0  0  0
    7.7138   -1.6590    0.0000 N   0  0  0  0  0  0  0  0  0  0  0  0
    8.0476   -3.1214    0.0000 N   0  0  0  0  0  0  0  0  0  0  0  0
    6.7599   -3.8907    0.0000 N   0  0  0  0  0  0  0  0  0  0  0  0
    6.6254   -5.3847    0.0000 C   0  0  0  0  0  0  0  0  0  0  0  0
    5.2644   -6.0152    0.0000 C   0  0  0  0  0  0  0  0  0  0  0  0
    5.1299   -7.5092    0.0000 C   0  0  0  0  0  0  0  0  0  0  0  0
    6.3565   -8.3726    0.0000 C   0  0  0  0  0  0  0  0  0  0  0  0
    6.2220   -9.8666    0.0000 O   0  0  0  0  0  0  0  0  0  0  0  0
    7.7175   -7.7421    0.0000 C   0  0  0  0  0  0  0  0  0  0  0  0
    7.8520   -6.2481    0.0000 C   0  0  0  0  0  0  0  0  0  0  0  0
    0.7500   -1.2990    0.0000 C   0  0  0  0  0  0  0  0  0  0  0  0
    1.5000    0.0000    0.0000 C   0  0  0  0  0  0  0  0  0  0  0  0
    0.7500    1.2990    0.0000 C   0  0  0  0  0  0  0  0  0  0  0  0
   -0.7500    1.2990    0.0000 C   0  0  0  0  0  0  0  0  0  0  0  0
   -1.5000    2.5981    0.0000 O   0  0  0  0  0  0  0  0  0  0  0  0
   -1.5000    0.0000    0.0000 C   0  0  0  0  0  0  0  0  0  0  0  0
   -0.7500   -1.2990    0.0000 C   0  0  0  0  0  0  0  0  0  0  0  0
  1  2  1  0
  2  3  1  0
  3  4  1  0
  4  5  1  0
  5  6  2  0
  6  7  1  0
  7  8  2  0
  7  9  1  0
  9 10  1  0
 10 11  2  0
 11 12  1  0
 12 13  2  0
 13 14  1  0
 14 15  1  0
 15 16  2  0
 16 17  1  0
 17 18  2  0
 18 19  1  0
 18 20  1  0
 20 21  2  0
  6 22  1  0
 22 23  2  0
 23 24  1  0
 24 25  2  0
 25 26  1  0
 25 27  1  0
 27 28  2  0
 28  2  1  0
 14 10  1  0
 21 15  1  0
 28 22  1  0
M  END
>  <Title>  (479) 
idAAQMgen14

$$$$

     RDKit          2D

 38 42  0  0  0  0  0  0  0  0999 V2000
   -5.7723   -2.1248    0.0000 C   0  0  0  0  0  0  0  0  0  0  0  0
   -4.3865   -2.6988    0.0000 C   0  0  0  0  0  0  0  0  0  0  0  0
   -3.1965   -1.7857    0.0000 C   0  0  0  0  0  0  0  0  0  0  0  0
   -1.8107   -2.3597    0.0000 C   0  0  0  0  0  0  0  0  0  0  0  0
   -1.8107   -3.8597    0.0000 C   0  0  0  0  0  0  0  0  0  0  0  0
   -0.7500   -4.9204    0.0000 S   0  0  0  0  0  0  0  0  0  0  0  0
    0.7500   -4.9204    0.0000 C   0  0  0  0  0  0  0  0  0  0  0  0
    1.8107   -3.8597    0.0000 C   0  0  0  0  0  0  0  0  0  0  0  0
    1.8107   -2.3597    0.0000 C   0  0  0  0  0  0  0  0  0  0  0  0
    3.1965   -1.7857    0.0000 C   0  0  0  0  0  0  0  0  0  0  0  0
    3.3923   -0.2985    0.0000 O   0  0  0  0  0  0  0  0  0  0  0  0
    4.3865   -2.6988    0.0000 N   0  0  0  0  0  0  0  0  0  0  0  0
    5.7723   -2.1248    0.0000 C   0  0  0  0  0  0  0  0  0  0  0  0
    6.1225   -0.6662    0.0000 N   0  0  0  0  0  0  0  0  0  0  0  0
    7.6179   -0.5485    0.0000 N   0  0  0  0  0  0  0  0  0  0  0  0
    8.1919   -1.9344    0.0000 N   0  0  0  0  0  0  0  0  0  0  0  0
    7.0513   -2.9085    0.0000 N   0  0  0  0  0  0  0  0  0  0  0  0
    7.1690   -4.4039    0.0000 C   0  0  0  0  0  0  0  0  0  0  0  0
    8.4479   -5.1877    0.0000 C   0  0  0  0  0  0  0  0  0  0  0  0
    8.0978   -6.6462    0.0000 C   0  0  0  0  0  0  0  0  0  0  0  0
    6.6024   -6.7639    0.0000 C   0  0  0  0  0  0  0  0  0  0  0  0
    5.8186   -8.0429    0.0000 C   0  0  0  0  0  0  0  0  0  0  0  0
    6.5344   -9.3611    0.0000 O   0  0  0  0  0  0  0  0  0  0  0  0
    4.3192   -8.0036    0.0000 N   0  0  0  0  0  0  0  0  0  0  0  0
    3.5354   -9.2826    0.0000 C   0  0  0  0  0  0  0  0  0  0  0  0
    2.0359   -9.2433    0.0000 N   0  0  0  0  0  0  0  0  0  0  0  0
    1.2522  -10.5223    0.0000 N   0  0  0  0  0  0  0  0  0  0  0  0
    1.9679  -11.8405    0.0000 N   0  0  0  0  0  0  0  0  0  0  0  0
    3.4674  -11.8797    0.0000 N   0  0  0  0  0  0  0  0  0  0  0  0
    4.2512  -10.6008    0.0000 N   0  0  0  0  0  0  0  0  0  0  0  0
    6.0284   -5.3781    0.0000 C   0  0  0  0  0  0  0  0  0  0  0  0
    4.5698   -5.0279    0.0000 O   0  0  0  0  0  0  0  0  0  0  0  0
    0.7500   -1.2990    0.0000 C   0  0  0  0  0  0  0  0  0  0  0  0
    1.5000    0.0000    0.0000 C   0  0  0  0  0  0  0  0  0  0  0  0
    0.7500    1.2990    0.0000 C   0  0  0  0  0  0  0  0  0  0  0  0
   -0.7500    1.2990    0.0000 C   0  0  0  0  0  0  0  0  0  0  0  0
   -1.5000    0.0000    0.0000 C   0  0  0  0  0  0  0  0  0  0  0  0
   -0.7500   -1.2990    0.0000 C   0  0  0  0  0  0  0  0  0  0  0  0
  1  2  2  0
  2  3  1  0
  3  4  1  0
  4  5  2  0
  5  6  1  0
  6  7  1  0
  7  8  1  0
  8  9  1  0
  9 10  1  0
 10 11  2  0
 10 12  1  0
 12 13  1  0
 13 14  2  0
 14 15  1  0
 15 16  2  0
 16 17  1  0
 17 18  1  0
 18 19  2  0
 19 20  1  0
 20 21  2  0
 21 22  1  0
 22 23  2  0
 22 24  1  0
 24 25  1  0
 25 26  2  0
 26 27  1  0
 27 28  2  0
 28 29  1  0
 29 30  2  0
 21 31  1  0
 31 32  2  0
  9 33  1  0
 33 34  2  0
 34 35  1  0
 35 36  2  0
 36 37  1  0
 37 38  2  0
 38  4  1  0
 17 13  1  0
 31 18  1  0
 38 33  1  0
 30 25  1  0
M  END
>  <Title>  (480) 
idAAQNgen14

$$$$

     RDKit          2D

 74 75  0  0  0  0  0  0  0  0999 V2000
    2.5929   -3.9880    0.0000 C   0  0  0  0  0  0  0  0  0  0  0  0
    3.3545   -4.2235    0.0000 C   0  0  0  0  0  0  0  0  0  0  0  0
    2.9939   -5.6795    0.0000 C   0  0  0  0  0  0  0  0  0  0  0  0
    2.8017   -7.1671    0.0000 C   0  0  0  0  0  0  0  0  0  0  0  0
    2.7803   -8.6670    0.0000 C   0  0  0  0  0  0  0  0  0  0  0  0
    2.9300  -10.1595    0.0000 C   0  0  0  0  0  0  0  0  0  0  0  0
    3.2488  -11.6252    0.0000 C   0  0  0  0  0  0  0  0  0  0  0  0
    3.7327  -13.0450    0.0000 C   0  0  0  0  0  0  0  0  0  0  0  0
    4.3752  -14.4004    0.0000 C   0  0  0  0  0  0  0  0  0  0  0  0
    5.1681  -15.6738    0.0000 C   0  0  0  0  0  0  0  0  0  0  0  0
    6.1009  -16.8484    0.0000 C   0  0  0  0  0  0  0  0  0  0  0  0
    7.1616  -17.9091    0.0000 C   0  0  0  0  0  0  0  0  0  0  0  0
    8.3362  -18.8419    0.0000 C   0  0  0  0  0  0  0  0  0  0  0  0
    9.6095  -19.6348    0.0000 C   0  0  0  0  0  0  0  0  0  0  0  0
   10.9649  -20.2773    0.0000 C   0  0  0  0  0  0  0  0  0  0  0  0
   12.3848  -20.7612    0.0000 C   0  0  0  0  0  0  0  0  0  0  0  0
   13.8505  -21.0800    0.0000 C   0  0  0  0  0  0  0  0  0  0  0  0
   15.3430  -21.2297    0.0000 C   0  0  0  0  0  0  0  0  0  0  0  0
   16.8428  -21.2083    0.0000 C   0  0  0  0  0  0  0  0  0  0  0  0
   18.3305  -21.0160    0.0000 C   0  0  0  0  0  0  0  0  0  0  0  0
   19.7865  -20.6555    0.0000 C   0  0  0  0  0  0  0  0  0  0  0  0
   21.1919  -20.1313    0.0000 C   0  0  0  0  0  0  0  0  0  0  0  0
   22.5284  -19.4503    0.0000 C   0  0  0  0  0  0  0  0  0  0  0  0
   23.7786  -18.6214    0.0000 C   0  0  0  0  0  0  0  0  0  0  0  0
   24.9261  -17.6554    0.0000 C   0  0  0  0  0  0  0  0  0  0  0  0
   25.9561  -16.5649    0.0000 C   0  0  0  0  0  0  0  0  0  0  0  0
   26.8550  -15.3640    0.0000 C   0  0  0  0  0  0  0  0  0  0  0  0
   27.6112  -14.0686    0.0000 C   0  0  0  0  0  0  0  0  0  0  0  0
   28.2147  -12.6954    0.0000 C   0  0  0  0  0  0  0  0  0  0  0  0
   28.6579  -11.2623    0.0000 C   0  0  0  0  0  0  0  0  0  0  0  0
   28.9347   -9.7881    0.0000 C   0  0  0  0  0  0  0  0  0  0  0  0
   29.0417   -8.2919    0.0000 C   0  0  0  0  0  0  0  0  0  0  0  0
   28.9775   -6.7933    0.0000 C   0  0  0  0  0  0  0  0  0  0  0  0
   28.7428   -5.3118    0.0000 C   0  0  0  0  0  0  0  0  0  0  0  0
   28.3408   -3.8666    0.0000 C   0  0  0  0  0  0  0  0  0  0  0  0
   27.7767   -2.4768    0.0000 C   0  0  0  0  0  0  0  0  0  0  0  0
   27.0578   -1.1602    0.0000 C   0  0  0  0  0  0  0  0  0  0  0  0
   26.1936    0.0658    0.0000 C   0  0  0  0  0  0  0  0  0  0  0  0
   25.1952    1.1852    0.0000 C   0  0  0  0  0  0  0  0  0  0  0  0
   24.0757    2.1836    0.0000 C   0  0  0  0  0  0  0  0  0  0  0  0
   22.8497    3.0479    0.0000 C   0  0  0  0  0  0  0  0  0  0  0  0
   21.5332    3.7667    0.0000 C   0  0  0  0  0  0  0  0  0  0  0  0
   20.1433    4.3309    0.0000 C   0  0  0  0  0  0  0  0  0  0  0  0
   18.6982    4.7329    0.0000 C   0  0  0  0  0  0  0  0  0  0  0  0
   17.2167    4.9675    0.0000 C   0  0  0  0  0  0  0  0  0  0  0  0
   15.7180    5.0318    0.0000 C   0  0  0  0  0  0  0  0  0  0  0  0
   14.2219    4.9248    0.0000 C   0  0  0  0  0  0  0  0  0  0  0  0
   12.7476    4.6479    0.0000 C   0  0  0  0  0  0  0  0  0  0  0  0
   11.3146    4.2048    0.0000 C   0  0  0  0  0  0  0  0  0  0  0  0
    9.9414    3.6012    0.0000 C   0  0  0  0  0  0  0  0  0  0  0  0
    8.6459    2.8450    0.0000 C   0  0  0  0  0  0  0  0  0  0  0  0
    7.4451    1.9461    0.0000 C   0  0  0  0  0  0  0  0  0  0  0  0
    6.3546    0.9162    0.0000 C   0  0  0  0  0  0  0  0  0  0  0  0
    5.3886   -0.2314    0.0000 C   0  0  0  0  0  0  0  0  0  0  0  0
    4.5597   -1.4815    0.0000 C   0  0  0  0  0  0  0  0  0  0  0  0
    4.0943   -0.0000    0.0000 C   0  0  0  0  0  0  0  0  0  0  0  0
    3.8939    1.2652    0.0000 C   0  0  0  0  0  0  0  0  0  0  0  0
    3.3124    2.4066    0.0000 C   0  0  0  0  0  0  0  0  0  0  0  0
    2.4066    3.3124    0.0000 C   0  0  0  0  0  0  0  0  0  0  0  0
    1.2652    3.8939    0.0000 C   0  0  0  0  0  0  0  0  0  0  0  0
    0.0000    4.0943    0.0000 C   0  0  0  0  0  0  0  0  0  0  0  0
   -1.2652    3.8939    0.0000 C   0  0  0  0  0  0  0  0  0  0  0  0
   -2.4066    3.3124    0.0000 C   0  0  0  0  0  0  0  0  0  0  0  0
   -3.3124    2.4066    0.0000 C   0  0  0  0  0  0  0  0  0  0  0  0
   -3.8939    1.2652    0.0000 C   0  0  0  0  0  0  0  0  0  0  0  0
   -4.0943    0.0000    0.0000 C   0  0  0  0  0  0  0  0  0  0  0  0
   -3.8939   -1.2652    0.0000 C   0  0  0  0  0  0  0  0  0  0  0  0
   -3.3124   -2.4066    0.0000 C   0  0  0  0  0  0  0  0  0  0  0  0
   -2.4066   -3.3124    0.0000 C   0  0  0  0  0  0  0  0  0  0  0  0
   -1.2652   -3.8939    0.0000 C   0  0  0  0  0  0  0  0  0  0  0  0
   -0.0000   -4.0943    0.0000 C   0  0  0  0  0  0  0  0  0  0  0  0
    1.2652   -3.8939    0.0000 C   0  0  0  0  0  0  0  0  0  0  0  0
    2.4066   -3.3124    0.0000 C   0  0  0  0  0  0  0  0  0  0  0  0
    3.8787   -2.8180    0.0000 C   0  0  0  0  0  0  0  0  0  0  0  0
  1  2  1  0
  2  3  1  0
  3  4  1  0
  4  5  1  0
  5  6  1  0
  6  7  1  0
  7  8  1  0
  8  9  1  0
  9 10  1  0
 10 11  1  0
 11 12  1  0
 12 13  1  0
 13 14  1  0
 14 15  1  0
 15 16  1  0
 16 17  1  0
 17 18  1  0
 18 19  1  0
 19 20  1  0
 20 21  1  0
 21 22  1  0
 22 23  1  0
 23 24  1  0
 24 25  1  0
 25 26  1  0
 26 27  1  0
 27 28  1  0
 28 29  1  0
 29 30  1  0
 30 31  1  0
 31 32  1  0
 32 33  1  0
 33 34  1  0
 34 35  1  0
 35 36  1  0
 36 37  1  0
 37 38  1  0
 38 39  1  0
 39 40  1  0
 40 41  1  0
 41 42  1  0
 42 43  1  0
 43 44  1  0
 44 45  1  0
 45 46  1  0
 46 47  1  0
 47 48  1  0
 48 49  1  0
 49 50  1  0
 50 51  1  0
 51 52  1  0
 52 53  1  0
 53 54  1  0
 54 55  1  0
 55 56  1  0
 56 57  1  0
 57 58  1  0
 58 59  1  0
 59 60  2  0
 60 61  1  0
 61 62  2  0
 62 63  1  0
 63 64  2  0
 64 65  1  0
 65 66  2  0
 66 67  1  0
 67 68  2  0
 68 69  1  0
 69 70  2  0
 70 71  1  0
 71 72  2  0
 72 73  1  0
 73 74  2  0
 74  2  1  0
 74 55  1  0
M  END
>  <Title>  (481) 
idAAQOgen14

$$$$

     RDKit          2D

  7  7  0  0  0  0  0  0  0  0999 V2000
    3.0000    0.0000    0.0000 C   0  0  0  0  0  0  0  0  0  0  0  0
    1.5000    0.0000    0.0000 C   0  0  0  0  0  0  0  0  0  0  0  0
    0.7500   -1.2990    0.0000 C   0  0  0  0  0  0  0  0  0  0  0  0
   -0.7500   -1.2990    0.0000 C   0  0  0  0  0  0  0  0  0  0  0  0
   -1.5000    0.0000    0.0000 C   0  0  0  0  0  0  0  0  0  0  0  0
   -0.7500    1.2990    0.0000 C   0  0  0  0  0  0  0  0  0  0  0  0
    0.7500    1.2990    0.0000 C   0  0  0  0  0  0  0  0  0  0  0  0
  1  2  1  0
  2  3  1  0
  3  4  2  0
  4  5  1  0
  5  6  1  0
  6  7  1  0
  7  2  1  0
M  END
>  <Title>  (482) 
idAAQPgen14

$$$$

     RDKit          2D

 71 72  0  0  0  0  0  0  0  0999 V2000
    3.8061   -4.1664    0.0000 C   0  0  0  0  0  0  0  0  0  0  0  0
    4.5879   -4.3219    0.0000 C   0  0  0  0  0  0  0  0  0  0  0  0
    4.3921   -5.8090    0.0000 C   0  0  0  0  0  0  0  0  0  0  0  0
    4.3921   -7.3090    0.0000 C   0  0  0  0  0  0  0  0  0  0  0  0
    4.5879   -8.7962    0.0000 C   0  0  0  0  0  0  0  0  0  0  0  0
    4.9762  -10.2451    0.0000 C   0  0  0  0  0  0  0  0  0  0  0  0
    5.5502  -11.6309    0.0000 C   0  0  0  0  0  0  0  0  0  0  0  0
    6.3002  -12.9300    0.0000 C   0  0  0  0  0  0  0  0  0  0  0  0
    7.2133  -14.1200    0.0000 C   0  0  0  0  0  0  0  0  0  0  0  0
    8.2740  -15.1806    0.0000 C   0  0  0  0  0  0  0  0  0  0  0  0
    9.4640  -16.0938    0.0000 C   0  0  0  0  0  0  0  0  0  0  0  0
   10.7631  -16.8438    0.0000 C   0  0  0  0  0  0  0  0  0  0  0  0
   12.1489  -17.4178    0.0000 C   0  0  0  0  0  0  0  0  0  0  0  0
   13.5978  -17.8060    0.0000 C   0  0  0  0  0  0  0  0  0  0  0  0
   15.0849  -18.0018    0.0000 C   0  0  0  0  0  0  0  0  0  0  0  0
   16.5849  -18.0018    0.0000 C   0  0  0  0  0  0  0  0  0  0  0  0
   18.0721  -17.8060    0.0000 C   0  0  0  0  0  0  0  0  0  0  0  0
   19.5210  -17.4178    0.0000 C   0  0  0  0  0  0  0  0  0  0  0  0
   20.9068  -16.8438    0.0000 C   0  0  0  0  0  0  0  0  0  0  0  0
   22.2058  -16.0938    0.0000 C   0  0  0  0  0  0  0  0  0  0  0  0
   23.3959  -15.1806    0.0000 C   0  0  0  0  0  0  0  0  0  0  0  0
   24.4565  -14.1200    0.0000 C   0  0  0  0  0  0  0  0  0  0  0  0
   25.3697  -12.9300    0.0000 C   0  0  0  0  0  0  0  0  0  0  0  0
   26.1197  -11.6309    0.0000 C   0  0  0  0  0  0  0  0  0  0  0  0
   26.6937  -10.2451    0.0000 C   0  0  0  0  0  0  0  0  0  0  0  0
   27.0819   -8.7962    0.0000 C   0  0  0  0  0  0  0  0  0  0  0  0
   27.2777   -7.3090    0.0000 C   0  0  0  0  0  0  0  0  0  0  0  0
   27.2777   -5.8090    0.0000 C   0  0  0  0  0  0  0  0  0  0  0  0
   27.0819   -4.3219    0.0000 C   0  0  0  0  0  0  0  0  0  0  0  0
   26.6937   -2.8730    0.0000 C   0  0  0  0  0  0  0  0  0  0  0  0
   26.1197   -1.4872    0.0000 C   0  0  0  0  0  0  0  0  0  0  0  0
   25.3697   -0.1881    0.0000 C   0  0  0  0  0  0  0  0  0  0  0  0
   24.4565    1.0019    0.0000 C   0  0  0  0  0  0  0  0  0  0  0  0
   23.3959    2.0626    0.0000 C   0  0  0  0  0  0  0  0  0  0  0  0
   22.2058    2.9757    0.0000 C   0  0  0  0  0  0  0  0  0  0  0  0
   20.9068    3.7257    0.0000 C   0  0  0  0  0  0  0  0  0  0  0  0
   19.5210    4.2997    0.0000 C   0  0  0  0  0  0  0  0  0  0  0  0
   18.0721    4.6880    0.0000 C   0  0  0  0  0  0  0  0  0  0  0  0
   16.5849    4.8837    0.0000 C   0  0  0  0  0  0  0  0  0  0  0  0
   15.0849    4.8837    0.0000 C   0  0  0  0  0  0  0  0  0  0  0  0
   13.5978    4.6880    0.0000 C   0  0  0  0  0  0  0  0  0  0  0  0
   12.1489    4.2997    0.0000 C   0  0  0  0  0  0  0  0  0  0  0  0
   10.7631    3.7257    0.0000 C   0  0  0  0  0  0  0  0  0  0  0  0
    9.4640    2.9757    0.0000 C   0  0  0  0  0  0  0  0  0  0  0  0
    8.2740    2.0626    0.0000 C   0  0  0  0  0  0  0  0  0  0  0  0
    7.2133    1.0019    0.0000 C   0  0  0  0  0  0  0  0  0  0  0  0
    6.3002   -0.1881    0.0000 C   0  0  0  0  0  0  0  0  0  0  0  0
    5.5502   -1.4872    0.0000 C   0  0  0  0  0  0  0  0  0  0  0  0
    5.0460   -0.0000    0.0000 C   0  0  0  0  0  0  0  0  0  0  0  0
    4.8740    1.3060    0.0000 C   0  0  0  0  0  0  0  0  0  0  0  0
    4.3699    2.5230    0.0000 C   0  0  0  0  0  0  0  0  0  0  0  0
    3.5680    3.5680    0.0000 C   0  0  0  0  0  0  0  0  0  0  0  0
    2.5230    4.3699    0.0000 C   0  0  0  0  0  0  0  0  0  0  0  0
    1.3060    4.8740    0.0000 C   0  0  0  0  0  0  0  0  0  0  0  0
    0.0000    5.0460    0.0000 C   0  0  0  0  0  0  0  0  0  0  0  0
   -1.3060    4.8740    0.0000 C   0  0  0  0  0  0  0  0  0  0  0  0
   -2.5230    4.3699    0.0000 C   0  0  0  0  0  0  0  0  0  0  0  0
   -3.5680    3.5680    0.0000 C   0  0  0  0  0  0  0  0  0  0  0  0
   -4.3699    2.5230    0.0000 C   0  0  0  0  0  0  0  0  0  0  0  0
   -4.8740    1.3060    0.0000 C   0  0  0  0  0  0  0  0  0  0  0  0
   -5.0460    0.0000    0.0000 C   0  0  0  0  0  0  0  0  0  0  0  0
   -4.8740   -1.3060    0.0000 C   0  0  0  0  0  0  0  0  0  0  0  0
   -4.3699   -2.5230    0.0000 C   0  0  0  0  0  0  0  0  0  0  0  0
   -3.5680   -3.5680    0.0000 C   0  0  0  0  0  0  0  0  0  0  0  0
   -2.5230   -4.3699    0.0000 C   0  0  0  0  0  0  0  0  0  0  0  0
   -1.3060   -4.8740    0.0000 C   0  0  0  0  0  0  0  0  0  0  0  0
   -0.0000   -5.0460    0.0000 C   0  0  0  0  0  0  0  0  0  0  0  0
    1.3060   -4.8740    0.0000 C   0  0  0  0  0  0  0  0  0  0  0  0
    2.5230   -4.3699    0.0000 C   0  0  0  0  0  0  0  0  0  0  0  0
    3.5680   -3.5680    0.0000 C   0  0  0  0  0  0  0  0  0  0  0  0
    4.9762   -2.8730    0.0000 C   0  0  0  0  0  0  0  0  0  0  0  0
  1  2  1  0
  2  3  1  0
  3  4  1  0
  4  5  1  0
  5  6  1  0
  6  7  1  0
  7  8  1  0
  8  9  1  0
  9 10  1  0
 10 11  1  0
 11 12  1  0
 12 13  1  0
 13 14  1  0
 14 15  1  0
 15 16  1  0
 16 17  1  0
 17 18  1  0
 18 19  1  0
 19 20  1  0
 20 21  1  0
 21 22  1  0
 22 23  1  0
 23 24  1  0
 24 25  1  0
 25 26  1  0
 26 27  1  0
 27 28  1  0
 28 29  1  0
 29 30  1  0
 30 31  1  0
 31 32  1  0
 32 33  1  0
 33 34  1  0
 34 35  1  0
 35 36  1  0
 36 37  1  0
 37 38  1  0
 38 39  1  0
 39 40  1  0
 40 41  1  0
 41 42  1  0
 42 43  1  0
 43 44  1  0
 44 45  1  0
 45 46  1  0
 46 47  1  0
 47 48  1  0
 48 49  1  0
 49 50  1  0
 50 51  1  0
 51 52  1  0
 52 53  2  0
 53 54  1  0
 54 55  2  0
 55 56  1  0
 56 57  2  0
 57 58  1  0
 58 59  2  0
 59 60  1  0
 60 61  2  0
 61 62  1  0
 62 63  2  0
 63 64  1  0
 64 65  2  0
 65 66  1  0
 66 67  2  0
 67 68  1  0
 68 69  2  0
 69 70  1  0
 70 71  2  0
 71  2  1  0
 71 48  1  0
M  END
>  <Title>  (483) 
idAAQQgen14

$$$$

     RDKit          2D

 15 15  0  0  0  0  0  0  0  0999 V2000
   10.5000   -5.1962    0.0000 C   0  0  0  0  0  0  0  0  0  0  0  0
    9.7500   -3.8971    0.0000 C   0  0  0  0  0  0  0  0  0  0  0  0
    8.2500   -3.8971    0.0000 C   0  0  0  0  0  0  0  0  0  0  0  0
    7.5000   -2.5981    0.0000 C   0  0  0  0  0  0  0  0  0  0  0  0
    6.0000   -2.5981    0.0000 N   0  0  0  0  0  0  0  0  0  0  0  0
    5.2500   -1.2990    0.0000 C   0  0  0  0  0  0  0  0  0  0  0  0
    6.0000    0.0000    0.0000 O   0  0  0  0  0  0  0  0  0  0  0  0
    3.7500   -1.2990    0.0000 C   0  0  0  0  0  0  0  0  0  0  0  0
    3.0000    0.0000    0.0000 C   0  0  0  0  0  0  0  0  0  0  0  0
    1.5000    0.0000    0.0000 C   0  0  0  0  0  0  0  0  0  0  0  0
    0.7500   -1.2990    0.0000 C   0  0  0  0  0  0  0  0  0  0  0  0
   -0.7500   -1.2990    0.0000 C   0  0  0  0  0  0  0  0  0  0  0  0
   -1.5000    0.0000    0.0000 C   0  0  0  0  0  0  0  0  0  0  0  0
   -0.7500    1.2990    0.0000 C   0  0  0  0  0  0  0  0  0  0  0  0
    0.7500    1.2990    0.0000 C   0  0  0  0  0  0  0  0  0  0  0  0
  1  2  1  0
  2  3  1  0
  3  4  1  0
  4  5  1  0
  5  6  1  0
  6  7  2  0
  6  8  1  0
  8  9  1  0
  9 10  1  0
 10 11  2  0
 11 12  1  0
 12 13  2  0
 13 14  1  0
 14 15  1  0
 15 10  1  0
M  END
>  <Title>  (484) 
idAAQRgen14

$$$$

     RDKit          2D

  6  5  0  0  0  0  0  0  0  0999 V2000
    0.0000    0.0000    0.0000 C   0  0  0  0  0  0  0  0  0  0  0  0
    1.2990    0.7500    0.0000 C   0  0  0  0  0  0  0  0  0  0  0  0
    2.5981   -0.0000    0.0000 C   0  0  0  0  0  0  0  0  0  0  0  0
    3.8971    0.7500    0.0000 C   0  0  0  0  0  0  0  0  0  0  0  0
    2.5981   -1.5000    0.0000 C   0  0  0  0  0  0  0  0  0  0  0  0
    3.8971   -2.2500    0.0000 O   0  0  0  0  0  0  0  0  0  0  0  0
  1  2  1  0
  2  3  1  0
  3  4  1  0
  3  5  1  0
  5  6  1  0
M  END
>  <Title>  (485) 
idAAQSgen14

$$$$

     RDKit          2D

 13 14  0  0  0  0  0  0  0  0999 V2000
    3.0000    0.0000    0.0000 C   0  0  0  0  0  0  0  0  0  0  0  0
    1.5000    0.0000    0.0000 C   0  0  0  0  0  0  0  0  0  0  0  0
    0.7500   -1.2990    0.0000 C   0  0  0  0  0  0  0  0  0  0  0  0
   -0.7500   -1.2990    0.0000 C   0  0  0  0  0  0  0  0  0  0  0  0
   -1.5000    0.0000    0.0000 C   0  0  0  0  0  0  0  0  0  0  0  0
   -3.0000    0.0000    0.0000 N   0  0  0  0  0  0  0  0  0  0  0  0
   -3.7500    1.2990    0.0000 C   0  0  0  0  0  0  0  0  0  0  0  0
   -5.2500    1.2990    0.0000 C   0  0  0  0  0  0  0  0  0  0  0  0
   -6.0000    0.0000    0.0000 C   0  0  0  0  0  0  0  0  0  0  0  0
   -5.2500   -1.2990    0.0000 N   0  0  0  0  0  0  0  0  0  0  0  0
   -3.7500   -1.2990    0.0000 N   0  0  0  0  0  0  0  0  0  0  0  0
   -0.7500    1.2990    0.0000 C   0  0  0  0  0  0  0  0  0  0  0  0
    0.7500    1.2990    0.0000 C   0  0  0  0  0  0  0  0  0  0  0  0
  1  2  1  0
  2  3  1  0
  3  4  2  0
  4  5  1  0
  5  6  1  0
  6  7  1  0
  7  8  1  0
  8  9  2  0
  9 10  1  0
 10 11  2  0
  5 12  1  0
 12 13  1  0
 13  2  1  0
 11  6  1  0
M  END
>  <Title>  (486) 
idAAQTgen14

$$$$

     RDKit          2D

 36 40  0  0  0  0  0  0  0  0999 V2000
   -3.1476   -2.1380    0.0000 C   0  0  0  0  0  0  0  0  0  0  0  0
   -1.6852   -2.4718    0.0000 C   0  0  0  0  0  0  0  0  0  0  0  0
   -1.3515   -3.9342    0.0000 C   0  0  0  0  0  0  0  0  0  0  0  0
   -0.0000   -4.5850    0.0000 C   0  0  0  0  0  0  0  0  0  0  0  0
    1.3515   -3.9342    0.0000 C   0  0  0  0  0  0  0  0  0  0  0  0
    1.6852   -2.4718    0.0000 C   0  0  0  0  0  0  0  0  0  0  0  0
    3.1476   -2.1380    0.0000 C   0  0  0  0  0  0  0  0  0  0  0  0
    3.5898   -0.7046    0.0000 O   0  0  0  0  0  0  0  0  0  0  0  0
    4.1679   -3.2376    0.0000 N   0  0  0  0  0  0  0  0  0  0  0  0
    5.6303   -2.9038    0.0000 C   0  0  0  0  0  0  0  0  0  0  0  0
    6.2198   -1.5245    0.0000 N   0  0  0  0  0  0  0  0  0  0  0  0
    7.7138   -1.6590    0.0000 N   0  0  0  0  0  0  0  0  0  0  0  0
    8.0476   -3.1214    0.0000 N   0  0  0  0  0  0  0  0  0  0  0  0
    6.7599   -3.8907    0.0000 N   0  0  0  0  0  0  0  0  0  0  0  0
    6.6254   -5.3847    0.0000 N   0  0  0  0  0  0  0  0  0  0  0  0
    7.7550   -6.3716    0.0000 C   0  0  0  0  0  0  0  0  0  0  0  0
    7.1655   -7.7509    0.0000 C   0  0  0  0  0  0  0  0  0  0  0  0
    5.6715   -7.6164    0.0000 N   0  0  0  0  0  0  0  0  0  0  0  0
    4.6846   -8.7460    0.0000 C   0  0  0  0  0  0  0  0  0  0  0  0
    5.1694  -10.1655    0.0000 O   0  0  0  0  0  0  0  0  0  0  0  0
    3.2129   -8.4561    0.0000 N   0  0  0  0  0  0  0  0  0  0  0  0
    2.2260   -9.5857    0.0000 C   0  0  0  0  0  0  0  0  0  0  0  0
    0.7543   -9.2959    0.0000 N   0  0  0  0  0  0  0  0  0  0  0  0
   -0.2326  -10.4255    0.0000 N   0  0  0  0  0  0  0  0  0  0  0  0
    0.2522  -11.8450    0.0000 N   0  0  0  0  0  0  0  0  0  0  0  0
    1.7239  -12.1348    0.0000 N   0  0  0  0  0  0  0  0  0  0  0  0
    2.7108  -11.0052    0.0000 N   0  0  0  0  0  0  0  0  0  0  0  0
    5.3378   -6.1540    0.0000 C   0  0  0  0  0  0  0  0  0  0  0  0
    3.9585   -5.5645    0.0000 O   0  0  0  0  0  0  0  0  0  0  0  0
    0.7500   -1.2990    0.0000 C   0  0  0  0  0  0  0  0  0  0  0  0
    1.5000    0.0000    0.0000 C   0  0  0  0  0  0  0  0  0  0  0  0
    0.7500    1.2990    0.0000 C   0  0  0  0  0  0  0  0  0  0  0  0
   -0.7500    1.2990    0.0000 C   0  0  0  0  0  0  0  0  0  0  0  0
   -1.5000    2.5981    0.0000 O   0  0  0  0  0  0  0  0  0  0  0  0
   -1.5000    0.0000    0.0000 C   0  0  0  0  0  0  0  0  0  0  0  0
   -0.7500   -1.2990    0.0000 C   0  0  0  0  0  0  0  0  0  0  0  0
  1  2  1  0
  2  3  1  0
  3  4  2  0
  4  5  1  0
  5  6  1  0
  6  7  1  0
  7  8  2  0
  7  9  1  0
  9 10  1  0
 10 11  2  0
 11 12  1  0
 12 13  2  0
 13 14  1  0
 14 15  1  0
 15 16  1  0
 16 17  1  0
 17 18  1  0
 18 19  1  0
 19 20  2  0
 19 21  1  0
 21 22  1  0
 22 23  2  0
 23 24  1  0
 24 25  2  0
 25 26  1  0
 26 27  2  0
 18 28  1  0
 28 29  2  0
  6 30  1  0
 30 31  2  0
 31 32  1  0
 32 33  2  0
 33 34  1  0
 33 35  1  0
 35 36  2  0
 36  2  1  0
 14 10  1  0
 28 15  1  0
 36 30  1  0
 27 22  1  0
M  END
>  <Title>  (487) 
idAAQUgen14

$$$$

     RDKit          2D

 46 51  0  0  0  0  0  0  0  0999 V2000
  -12.7500   -9.0933    0.0000 C   0  0  0  0  0  0  0  0  0  0  0  0
  -12.0000   -7.7942    0.0000 C   0  0  0  0  0  0  0  0  0  0  0  0
  -12.7500   -6.4952    0.0000 O   0  0  0  0  0  0  0  0  0  0  0  0
  -10.5000   -7.7942    0.0000 N   0  0  0  0  0  0  0  0  0  0  0  0
   -9.7500   -6.4952    0.0000 C   0  0  0  0  0  0  0  0  0  0  0  0
  -10.5000   -5.1962    0.0000 C   0  0  0  0  0  0  0  0  0  0  0  0
   -9.7500   -3.8971    0.0000 C   0  0  0  0  0  0  0  0  0  0  0  0
   -8.2500   -3.8971    0.0000 C   0  0  0  0  0  0  0  0  0  0  0  0
   -7.5000   -5.1962    0.0000 C   0  0  0  0  0  0  0  0  0  0  0  0
   -6.0000   -5.1962    0.0000 N   0  0  0  0  0  0  0  0  0  0  0  0
   -5.2500   -3.8971    0.0000 C   0  0  0  0  0  0  0  0  0  0  0  0
   -3.7500   -3.8971    0.0000 C   0  0  0  0  0  0  0  0  0  0  0  0
   -3.0000   -2.5981    0.0000 C   0  0  0  0  0  0  0  0  0  0  0  0
   -1.5000   -2.5981    0.0000 C   0  0  0  0  0  0  0  0  0  0  0  0
   -0.7500   -3.8971    0.0000 C   0  0  0  0  0  0  0  0  0  0  0  0
    0.7500   -3.8971    0.0000 C   0  0  0  0  0  0  0  0  0  0  0  0
    1.5000   -2.5981    0.0000 C   0  0  0  0  0  0  0  0  0  0  0  0
    3.0000   -2.5981    0.0000 C   0  0  0  0  0  0  0  0  0  0  0  0
    3.7500   -3.8971    0.0000 C   0  0  0  0  0  0  0  0  0  0  0  0
    3.0000   -5.1962    0.0000 O   0  0  0  0  0  0  0  0  0  0  0  0
    5.2500   -3.8971    0.0000 N   0  0  0  0  0  0  0  0  0  0  0  0
    6.0000   -5.1962    0.0000 C   0  0  0  0  0  0  0  0  0  0  0  0
    7.4918   -5.3529    0.0000 N   0  0  0  0  0  0  0  0  0  0  0  0
    7.8037   -6.8202    0.0000 N   0  0  0  0  0  0  0  0  0  0  0  0
    6.5046   -7.5702    0.0000 N   0  0  0  0  0  0  0  0  0  0  0  0
    5.3899   -6.5665    0.0000 N   0  0  0  0  0  0  0  0  0  0  0  0
    3.9227   -6.8783    0.0000 C   0  0  0  0  0  0  0  0  0  0  0  0
    2.8080   -7.8820    0.0000 C   0  0  0  0  0  0  0  0  0  0  0  0
    2.3444   -9.3086    0.0000 C   0  0  0  0  0  0  0  0  0  0  0  0
    3.3481  -10.4233    0.0000 O   0  0  0  0  0  0  0  0  0  0  0  0
    0.8772   -9.6205    0.0000 N   0  0  0  0  0  0  0  0  0  0  0  0
    0.4137  -11.0471    0.0000 C   0  0  0  0  0  0  0  0  0  0  0  0
   -1.0535  -11.3589    0.0000 N   0  0  0  0  0  0  0  0  0  0  0  0
   -1.5171  -12.7855    0.0000 N   0  0  0  0  0  0  0  0  0  0  0  0
   -0.5134  -13.9002    0.0000 N   0  0  0  0  0  0  0  0  0  0  0  0
    0.9539  -13.5884    0.0000 N   0  0  0  0  0  0  0  0  0  0  0  0
    1.4174  -12.1618    0.0000 N   0  0  0  0  0  0  0  0  0  0  0  0
    2.4961   -6.4148    0.0000 C   0  0  0  0  0  0  0  0  0  0  0  0
    1.4924   -5.3001    0.0000 O   0  0  0  0  0  0  0  0  0  0  0  0
    0.7500   -1.2990    0.0000 C   0  0  0  0  0  0  0  0  0  0  0  0
    1.5000    0.0000    0.0000 C   0  0  0  0  0  0  0  0  0  0  0  0
    0.7500    1.2990    0.0000 C   0  0  0  0  0  0  0  0  0  0  0  0
   -0.7500    1.2990    0.0000 C   0  0  0  0  0  0  0  0  0  0  0  0
   -1.5000    0.0000    0.0000 C   0  0  0  0  0  0  0  0  0  0  0  0
   -0.7500   -1.2990    0.0000 C   0  0  0  0  0  0  0  0  0  0  0  0
   -8.2500   -6.4952    0.0000 N   0  0  0  0  0  0  0  0  0  0  0  0
  1  2  1  0
  2  3  2  0
  2  4  1  0
  4  5  1  0
  5  6  2  0
  6  7  1  0
  7  8  1  0
  8  9  1  0
  9 10  1  0
 10 11  2  3
 11 12  1  0
 12 13  1  0
 13 14  1  0
 14 15  2  0
 15 16  1  0
 16 17  2  0
 17 18  1  0
 18 19  1  0
 19 20  2  0
 19 21  1  0
 21 22  1  0
 22 23  2  0
 23 24  1  0
 24 25  2  0
 25 26  1  0
 26 27  1  0
 27 28  2  0
 28 29  1  0
 29 30  2  0
 29 31  1  0
 31 32  1  0
 32 33  2  0
 33 34  1  0
 34 35  2  0
 35 36  1  0
 36 37  2  0
 28 38  1  0
 38 39  2  0
 17 40  1  0
 40 41  2  0
 41 42  1  0
 42 43  2  0
 43 44  1  0
 44 45  2  0
  9 46  1  0
 46  5  1  0
 45 14  1  0
 26 22  1  0
 38 27  1  0
 45 40  1  0
 37 32  1  0
M  END
>  <Title>  (488) 
idAAQVgen14

$$$$

     RDKit          2D

  8  8  0  0  0  0  0  0  0  0999 V2000
    4.5000    0.0000    0.0000 N   0  0  0  0  0  0  0  0  0  0  0  0
    3.0000    0.0000    0.0000 C   0  0  0  0  0  0  0  0  0  0  0  0
    1.5000    0.0000    0.0000 C   0  0  0  0  0  0  0  0  0  0  0  0
    0.7500   -1.2990    0.0000 C   0  0  0  0  0  0  0  0  0  0  0  0
   -0.7500   -1.2990    0.0000 C   0  0  0  0  0  0  0  0  0  0  0  0
   -1.5000    0.0000    0.0000 C   0  0  0  0  0  0  0  0  0  0  0  0
   -0.7500    1.2990    0.0000 C   0  0  0  0  0  0  0  0  0  0  0  0
    0.7500    1.2990    0.0000 C   0  0  0  0  0  0  0  0  0  0  0  0
  1  2  3  0
  2  3  1  0
  3  4  2  0
  4  5  1  0
  5  6  2  0
  6  7  1  0
  7  8  2  0
  8  3  1  0
M  END
>  <Title>  (489) 
idAAQWgen14

$$$$

     RDKit          2D

 13 14  0  0  0  0  0  0  0  0999 V2000
    3.0000    0.0000    0.0000 C   0  0  0  0  0  0  0  0  0  0  0  0
    1.5000    0.0000    0.0000 C   0  0  0  0  0  0  0  0  0  0  0  0
    0.7500   -1.2990    0.0000 N   0  0  0  0  0  0  0  0  0  0  0  0
   -0.7500   -1.2990    0.0000 N   0  0  0  0  0  0  0  0  0  0  0  0
   -1.5000    0.0000    0.0000 C   0  0  0  0  0  0  0  0  0  0  0  0
   -3.0000    0.0000    0.0000 N   0  0  0  0  0  0  0  0  0  0  0  0
   -3.7500    1.2990    0.0000 C   0  0  0  0  0  0  0  0  0  0  0  0
   -5.2500    1.2990    0.0000 C   0  0  0  0  0  0  0  0  0  0  0  0
   -6.0000    0.0000    0.0000 N   0  0  0  0  0  0  0  0  0  0  0  0
   -5.2500   -1.2990    0.0000 N   0  0  0  0  0  0  0  0  0  0  0  0
   -3.7500   -1.2990    0.0000 N   0  0  0  0  0  0  0  0  0  0  0  0
   -0.7500    1.2990    0.0000 C   0  0  0  0  0  0  0  0  0  0  0  0
    0.7500    1.2990    0.0000 C   0  0  0  0  0  0  0  0  0  0  0  0
  1  2  1  0
  2  3  2  0
  3  4  1  0
  4  5  1  0
  5  6  1  0
  6  7  1  0
  7  8  1  0
  8  9  2  0
  9 10  1  0
 10 11  2  0
  5 12  1  0
 12 13  2  0
 13  2  1  0
 11  6  1  0
M  END
>  <Title>  (490) 
idAAQXgen14

$$$$

     RDKit          2D

  6  6  0  0  0  0  0  0  0  0999 V2000
    2.7760    0.0000    0.0000 O   0  0  0  0  0  0  0  0  0  0  0  0
    1.2760    0.0000    0.0000 C   0  0  0  0  0  0  0  0  0  0  0  0
    0.3943    1.2135    0.0000 C   0  0  0  0  0  0  0  0  0  0  0  0
   -1.0323    0.7500    0.0000 C   0  0  0  0  0  0  0  0  0  0  0  0
   -1.0323   -0.7500    0.0000 C   0  0  0  0  0  0  0  0  0  0  0  0
    0.3943   -1.2135    0.0000 C   0  0  0  0  0  0  0  0  0  0  0  0
  1  2  1  0
  2  3  2  0
  3  4  1  0
  4  5  2  0
  5  6  1  0
  6  2  1  0
M  END
>  <Title>  (491) 
idAAQYgen14

$$$$

     RDKit          2D

107108  0  0  0  0  0  0  0  0999 V2000
    1.5991    3.7292    0.0000 C   0  0  0  0  0  0  0  0  0  0  0  0
    2.3166    4.0766    0.0000 C   0  0  0  0  0  0  0  0  0  0  0  0
    1.7100    5.4484    0.0000 C   0  0  0  0  0  0  0  0  0  0  0  0
    1.1995    6.8589    0.0000 C   0  0  0  0  0  0  0  0  0  0  0  0
    0.7876    8.3012    0.0000 C   0  0  0  0  0  0  0  0  0  0  0  0
    0.4761    9.7685    0.0000 C   0  0  0  0  0  0  0  0  0  0  0  0
    0.2666   11.2538    0.0000 C   0  0  0  0  0  0  0  0  0  0  0  0
    0.1601   12.7500    0.0000 C   0  0  0  0  0  0  0  0  0  0  0  0
    0.1570   14.2500    0.0000 C   0  0  0  0  0  0  0  0  0  0  0  0
    0.2575   15.7467    0.0000 C   0  0  0  0  0  0  0  0  0  0  0  0
    0.4609   17.2328    0.0000 C   0  0  0  0  0  0  0  0  0  0  0  0
    0.7664   18.7014    0.0000 C   0  0  0  0  0  0  0  0  0  0  0  0
    1.1725   20.1453    0.0000 C   0  0  0  0  0  0  0  0  0  0  0  0
    1.6773   21.5579    0.0000 C   0  0  0  0  0  0  0  0  0  0  0  0
    2.2783   22.9322    0.0000 C   0  0  0  0  0  0  0  0  0  0  0  0
    2.9727   24.2618    0.0000 C   0  0  0  0  0  0  0  0  0  0  0  0
    3.7571   25.5403    0.0000 C   0  0  0  0  0  0  0  0  0  0  0  0
    4.6279   26.7617    0.0000 C   0  0  0  0  0  0  0  0  0  0  0  0
    5.5809   27.9200    0.0000 C   0  0  0  0  0  0  0  0  0  0  0  0
    6.6116   29.0099    0.0000 C   0  0  0  0  0  0  0  0  0  0  0  0
    7.7149   30.0261    0.0000 C   0  0  0  0  0  0  0  0  0  0  0  0
    8.8858   30.9637    0.0000 C   0  0  0  0  0  0  0  0  0  0  0  0
   10.1185   31.8183    0.0000 C   0  0  0  0  0  0  0  0  0  0  0  0
   11.4073   32.5858    0.0000 C   0  0  0  0  0  0  0  0  0  0  0  0
   12.7459   33.2626    0.0000 C   0  0  0  0  0  0  0  0  0  0  0  0
   14.1281   33.8454    0.0000 C   0  0  0  0  0  0  0  0  0  0  0  0
   15.5471   34.3314    0.0000 C   0  0  0  0  0  0  0  0  0  0  0  0
   16.9964   34.7184    0.0000 C   0  0  0  0  0  0  0  0  0  0  0  0
   18.4688   35.0045    0.0000 C   0  0  0  0  0  0  0  0  0  0  0  0
   19.9575   35.1884    0.0000 C   0  0  0  0  0  0  0  0  0  0  0  0
   21.4554   35.2691    0.0000 C   0  0  0  0  0  0  0  0  0  0  0  0
   22.9552   35.2462    0.0000 C   0  0  0  0  0  0  0  0  0  0  0  0
   24.4499   35.1199    0.0000 C   0  0  0  0  0  0  0  0  0  0  0  0
   25.9323   34.8909    0.0000 C   0  0  0  0  0  0  0  0  0  0  0  0
   27.3953   34.5600    0.0000 C   0  0  0  0  0  0  0  0  0  0  0  0
   28.8321   34.1291    0.0000 C   0  0  0  0  0  0  0  0  0  0  0  0
   30.2357   33.6000    0.0000 C   0  0  0  0  0  0  0  0  0  0  0  0
   31.5994   32.9754    0.0000 C   0  0  0  0  0  0  0  0  0  0  0  0
   32.9169   32.2582    0.0000 C   0  0  0  0  0  0  0  0  0  0  0  0
   34.1816   31.4518    0.0000 C   0  0  0  0  0  0  0  0  0  0  0  0
   35.3878   30.5600    0.0000 C   0  0  0  0  0  0  0  0  0  0  0  0
   36.5295   29.5872    0.0000 C   0  0  0  0  0  0  0  0  0  0  0  0
   37.6014   28.5379    0.0000 C   0  0  0  0  0  0  0  0  0  0  0  0
   38.5984   27.4171    0.0000 C   0  0  0  0  0  0  0  0  0  0  0  0
   39.5157   26.2303    0.0000 C   0  0  0  0  0  0  0  0  0  0  0  0
   40.3489   24.9830    0.0000 C   0  0  0  0  0  0  0  0  0  0  0  0
   41.0940   23.6811    0.0000 C   0  0  0  0  0  0  0  0  0  0  0  0
   41.7476   22.3310    0.0000 C   0  0  0  0  0  0  0  0  0  0  0  0
   42.3065   20.9390    0.0000 C   0  0  0  0  0  0  0  0  0  0  0  0
   42.7680   19.5118    0.0000 C   0  0  0  0  0  0  0  0  0  0  0  0
   43.1299   18.0561    0.0000 C   0  0  0  0  0  0  0  0  0  0  0  0
   43.3905   16.5789    0.0000 C   0  0  0  0  0  0  0  0  0  0  0  0
   43.5486   15.0873    0.0000 C   0  0  0  0  0  0  0  0  0  0  0  0
   43.6034   13.5883    0.0000 C   0  0  0  0  0  0  0  0  0  0  0  0
   43.5547   12.0891    0.0000 C   0  0  0  0  0  0  0  0  0  0  0  0
   43.4027   10.5968    0.0000 C   0  0  0  0  0  0  0  0  0  0  0  0
   43.1480    9.1185    0.0000 C   0  0  0  0  0  0  0  0  0  0  0  0
   42.7920    7.6614    0.0000 C   0  0  0  0  0  0  0  0  0  0  0  0
   42.3363    6.2323    0.0000 C   0  0  0  0  0  0  0  0  0  0  0  0
   41.7831    4.8380    0.0000 C   0  0  0  0  0  0  0  0  0  0  0  0
   41.1350    3.4853    0.0000 C   0  0  0  0  0  0  0  0  0  0  0  0
   40.3952    2.1804    0.0000 C   0  0  0  0  0  0  0  0  0  0  0  0
   39.5670    0.9298    0.0000 C   0  0  0  0  0  0  0  0  0  0  0  0
   38.6546   -0.2608    0.0000 C   0  0  0  0  0  0  0  0  0  0  0  0
   37.6622   -1.3856    0.0000 C   0  0  0  0  0  0  0  0  0  0  0  0
   36.5946   -2.4392    0.0000 C   0  0  0  0  0  0  0  0  0  0  0  0
   35.4568   -3.4167    0.0000 C   0  0  0  0  0  0  0  0  0  0  0  0
   34.2543   -4.3134    0.0000 C   0  0  0  0  0  0  0  0  0  0  0  0
   32.9928   -5.1249    0.0000 C   0  0  0  0  0  0  0  0  0  0  0  0
   31.6783   -5.8475    0.0000 C   0  0  0  0  0  0  0  0  0  0  0  0
   30.3171   -6.4776    0.0000 C   0  0  0  0  0  0  0  0  0  0  0  0
   28.9156   -7.0124    0.0000 C   0  0  0  0  0  0  0  0  0  0  0  0
   27.4806   -7.4492    0.0000 C   0  0  0  0  0  0  0  0  0  0  0  0
   26.0189   -7.7859    0.0000 C   0  0  0  0  0  0  0  0  0  0  0  0
   24.5375   -8.0210    0.0000 C   0  0  0  0  0  0  0  0  0  0  0  0
   23.0433   -8.1534    0.0000 C   0  0  0  0  0  0  0  0  0  0  0  0
   21.5436   -8.1823    0.0000 C   0  0  0  0  0  0  0  0  0  0  0  0
   20.0454   -8.1077    0.0000 C   0  0  0  0  0  0  0  0  0  0  0  0
   18.5560   -7.9299    0.0000 C   0  0  0  0  0  0  0  0  0  0  0  0
   17.0824   -7.6498    0.0000 C   0  0  0  0  0  0  0  0  0  0  0  0
   15.6316   -7.2687    0.0000 C   0  0  0  0  0  0  0  0  0  0  0  0
   14.2106   -6.7884    0.0000 C   0  0  0  0  0  0  0  0  0  0  0  0
   12.8261   -6.2112    0.0000 C   0  0  0  0  0  0  0  0  0  0  0  0
   11.4847   -5.5399    0.0000 C   0  0  0  0  0  0  0  0  0  0  0  0
   10.1928   -4.7776    0.0000 C   0  0  0  0  0  0  0  0  0  0  0  0
    8.9566   -3.9280    0.0000 C   0  0  0  0  0  0  0  0  0  0  0  0
    7.7820   -2.9952    0.0000 C   0  0  0  0  0  0  0  0  0  0  0  0
    6.6745   -1.9835    0.0000 C   0  0  0  0  0  0  0  0  0  0  0  0
    5.6395   -0.8978    0.0000 C   0  0  0  0  0  0  0  0  0  0  0  0
    4.6818    0.2567    0.0000 C   0  0  0  0  0  0  0  0  0  0  0  0
    3.8060    1.4745    0.0000 C   0  0  0  0  0  0  0  0  0  0  0  0
    3.3816   -0.0000    0.0000 C   0  0  0  0  0  0  0  0  0  0  0  0
    3.1533   -1.2216    0.0000 C   0  0  0  0  0  0  0  0  0  0  0  0
    2.4991   -2.2782    0.0000 C   0  0  0  0  0  0  0  0  0  0  0  0
    1.5073   -3.0271    0.0000 C   0  0  0  0  0  0  0  0  0  0  0  0
    0.3120   -3.3672    0.0000 C   0  0  0  0  0  0  0  0  0  0  0  0
   -0.9254   -3.2526    0.0000 C   0  0  0  0  0  0  0  0  0  0  0  0
   -2.0379   -2.6986    0.0000 C   0  0  0  0  0  0  0  0  0  0  0  0
   -2.8751   -1.7802    0.0000 C   0  0  0  0  0  0  0  0  0  0  0  0
   -3.3241   -0.6214    0.0000 C   0  0  0  0  0  0  0  0  0  0  0  0
   -3.3241    0.6214    0.0000 C   0  0  0  0  0  0  0  0  0  0  0  0
   -2.8751    1.7802    0.0000 C   0  0  0  0  0  0  0  0  0  0  0  0
   -2.0379    2.6986    0.0000 C   0  0  0  0  0  0  0  0  0  0  0  0
   -0.9254    3.2526    0.0000 C   0  0  0  0  0  0  0  0  0  0  0  0
    0.3120    3.3672    0.0000 C   0  0  0  0  0  0  0  0  0  0  0  0
    1.5073    3.0271    0.0000 C   0  0  0  0  0  0  0  0  0  0  0  0
    3.0164    2.7498    0.0000 C   0  0  0  0  0  0  0  0  0  0  0  0
  1  2  1  0
  2  3  1  0
  3  4  1  0
  4  5  1  0
  5  6  1  0
  6  7  1  0
  7  8  1  0
  8  9  1  0
  9 10  1  0
 10 11  1  0
 11 12  1  0
 12 13  1  0
 13 14  1  0
 14 15  1  0
 15 16  1  0
 16 17  1  0
 17 18  1  0
 18 19  1  0
 19 20  1  0
 20 21  1  0
 21 22  1  0
 22 23  1  0
 23 24  1  0
 24 25  1  0
 25 26  1  0
 26 27  1  0
 27 28  1  0
 28 29  1  0
 29 30  1  0
 30 31  1  0
 31 32  1  0
 32 33  1  0
 33 34  1  0
 34 35  1  0
 35 36  1  0
 36 37  1  0
 37 38  1  0
 38 39  1  0
 39 40  1  0
 40 41  1  0
 41 42  1  0
 42 43  1  0
 43 44  1  0
 44 45  1  0
 45 46  1  0
 46 47  1  0
 47 48  1  0
 48 49  1  0
 49 50  1  0
 50 51  1  0
 51 52  1  0
 52 53  1  0
 53 54  1  0
 54 55  1  0
 55 56  1  0
 56 57  1  0
 57 58  1  0
 58 59  1  0
 59 60  1  0
 60 61  1  0
 61 62  1  0
 62 63  1  0
 63 64  1  0
 64 65  1  0
 65 66  1  0
 66 67  1  0
 67 68  1  0
 68 69  1  0
 69 70  1  0
 70 71  1  0
 71 72  1  0
 72 73  1  0
 73 74  1  0
 74 75  1  0
 75 76  1  0
 76 77  1  0
 77 78  1  0
 78 79  1  0
 79 80  1  0
 80 81  1  0
 81 82  1  0
 82 83  1  0
 83 84  1  0
 84 85  1  0
 85 86  1  0
 86 87  1  0
 87 88  1  0
 88 89  1  0
 89 90  1  0
 90 91  1  0
 91 92  1  0
 92 93  2  0
 93 94  1  0
 94 95  2  0
 95 96  1  0
 96 97  2  0
 97 98  1  0
 98 99  2  0
 99100  1  0
100101  2  0
101102  1  0
102103  2  0
103104  1  0
104105  2  0
105106  1  0
106107  2  0
107  2  1  0
107 91  1  0
M  END
>  <Title>  (492) 
idAAQZgen14

$$$$

     RDKit          2D

  6  6  0  0  0  0  0  0  0  0999 V2000
    2.7760    0.0000    0.0000 C   0  0  0  0  0  0  0  0  0  0  0  0
    1.2760    0.0000    0.0000 C   0  0  0  0  0  0  0  0  0  0  0  0
    0.3943    1.2135    0.0000 N   0  0  0  0  0  0  0  0  0  0  0  0
   -1.0323    0.7500    0.0000 C   0  0  0  0  0  0  0  0  0  0  0  0
   -1.0323   -0.7500    0.0000 C   0  0  0  0  0  0  0  0  0  0  0  0
    0.3943   -1.2135    0.0000 C   0  0  0  0  0  0  0  0  0  0  0  0
  1  2  1  0
  2  3  2  0
  3  4  1  0
  4  5  1  0
  5  6  1  0
  6  2  1  0
M  END
>  <Title>  (493) 
idAARAgen14

$$$$

     RDKit          2D

 33 37  0  0  0  0  0  0  0  0999 V2000
   -1.6577   -8.7723    0.0000 O   0  0  0  0  0  0  0  0  0  0  0  0
   -3.0280   -9.3824    0.0000 C   0  0  0  0  0  0  0  0  0  0  0  0
   -3.1848  -10.8742    0.0000 N   0  0  0  0  0  0  0  0  0  0  0  0
   -1.9713  -11.7559    0.0000 C   0  0  0  0  0  0  0  0  0  0  0  0
   -2.1281  -13.2477    0.0000 N   0  0  0  0  0  0  0  0  0  0  0  0
   -0.9146  -14.1293    0.0000 N   0  0  0  0  0  0  0  0  0  0  0  0
    0.4557  -13.5192    0.0000 N   0  0  0  0  0  0  0  0  0  0  0  0
    0.6125  -12.0275    0.0000 N   0  0  0  0  0  0  0  0  0  0  0  0
   -0.6010  -11.1458    0.0000 N   0  0  0  0  0  0  0  0  0  0  0  0
   -4.2416   -8.5008    0.0000 C   0  0  0  0  0  0  0  0  0  0  0  0
   -5.6682   -8.9643    0.0000 C   0  0  0  0  0  0  0  0  0  0  0  0
   -6.5498   -7.7508    0.0000 C   0  0  0  0  0  0  0  0  0  0  0  0
   -5.6682   -6.5372    0.0000 C   0  0  0  0  0  0  0  0  0  0  0  0
   -6.1317   -5.1106    0.0000 N   0  0  0  0  0  0  0  0  0  0  0  0
   -7.5583   -4.6471    0.0000 N   0  0  0  0  0  0  0  0  0  0  0  0
   -7.5583   -3.1471    0.0000 N   0  0  0  0  0  0  0  0  0  0  0  0
   -6.1317   -2.6836    0.0000 N   0  0  0  0  0  0  0  0  0  0  0  0
   -5.2500   -3.8971    0.0000 C   0  0  0  0  0  0  0  0  0  0  0  0
   -3.7500   -3.8971    0.0000 N   0  0  0  0  0  0  0  0  0  0  0  0
   -3.0000   -2.5981    0.0000 C   0  0  0  0  0  0  0  0  0  0  0  0
   -3.7500   -1.2990    0.0000 O   0  0  0  0  0  0  0  0  0  0  0  0
   -1.5000   -2.5981    0.0000 C   0  0  0  0  0  0  0  0  0  0  0  0
   -0.7500   -3.8971    0.0000 O   0  0  0  0  0  0  0  0  0  0  0  0
    0.7500   -3.8971    0.0000 C   0  0  0  0  0  0  0  0  0  0  0  0
    1.5000   -2.5981    0.0000 C   0  0  0  0  0  0  0  0  0  0  0  0
    0.7500   -1.2990    0.0000 C   0  0  0  0  0  0  0  0  0  0  0  0
    1.5000    0.0000    0.0000 C   0  0  0  0  0  0  0  0  0  0  0  0
    0.7500    1.2990    0.0000 C   0  0  0  0  0  0  0  0  0  0  0  0
   -0.7500    1.2990    0.0000 C   0  0  0  0  0  0  0  0  0  0  0  0
   -1.5000    0.0000    0.0000 C   0  0  0  0  0  0  0  0  0  0  0  0
   -0.7500   -1.2990    0.0000 C   0  0  0  0  0  0  0  0  0  0  0  0
   -4.2416   -7.0008    0.0000 C   0  0  0  0  0  0  0  0  0  0  0  0
   -3.0280   -6.1191    0.0000 O   0  0  0  0  0  0  0  0  0  0  0  0
  1  2  2  0
  2  3  1  0
  3  4  1  0
  4  5  2  0
  5  6  1  0
  6  7  2  0
  7  8  1  0
  8  9  2  0
  2 10  1  0
 10 11  2  0
 11 12  1  0
 12 13  2  0
 13 14  1  0
 14 15  1  0
 15 16  2  0
 16 17  1  0
 17 18  2  0
 18 19  1  0
 19 20  1  0
 20 21  2  0
 20 22  1  0
 22 23  1  0
 23 24  1  0
 24 25  2  0
 25 26  1  0
 26 27  2  0
 27 28  1  0
 28 29  2  0
 29 30  1  0
 30 31  2  0
 13 32  1  0
 32 33  2  0
  9  4  1  0
 32 10  1  0
 18 14  1  0
 31 22  1  0
 31 26  1  0
M  END
>  <Title>  (494) 
idAARBgen14

$$$$

     RDKit          2D

 10 10  0  0  0  0  0  0  0  0999 V2000
    5.2500   -1.2990    0.0000 C   0  0  0  0  0  0  0  0  0  0  0  0
    3.7500   -1.2990    0.0000 C   0  0  0  0  0  0  0  0  0  0  0  0
    3.0000   -2.5981    0.0000 O   0  0  0  0  0  0  0  0  0  0  0  0
    3.0000    0.0000    0.0000 N   0  0  0  0  0  0  0  0  0  0  0  0
    1.5000    0.0000    0.0000 C   0  0  0  0  0  0  0  0  0  0  0  0
    0.7500   -1.2990    0.0000 C   0  0  0  0  0  0  0  0  0  0  0  0
   -0.7500   -1.2990    0.0000 C   0  0  0  0  0  0  0  0  0  0  0  0
   -1.5000    0.0000    0.0000 C   0  0  0  0  0  0  0  0  0  0  0  0
   -0.7500    1.2990    0.0000 C   0  0  0  0  0  0  0  0  0  0  0  0
    0.7500    1.2990    0.0000 N   0  0  0  0  0  0  0  0  0  0  0  0
  1  2  1  0
  2  3  2  0
  2  4  1  0
  4  5  1  0
  5  6  2  0
  6  7  1  0
  7  8  1  0
  8  9  1  0
  9 10  2  0
 10  5  1  0
M  END
>  <Title>  (495) 
idAARCgen14

$$$$

     RDKit          2D

 10 10  0  0  0  0  0  0  0  0999 V2000
    6.0000   -2.5981    0.0000 C   0  0  0  0  0  0  0  0  0  0  0  0
    5.2500   -1.2990    0.0000 C   0  0  0  0  0  0  0  0  0  0  0  0
    3.7500   -1.2990    0.0000 C   0  0  0  0  0  0  0  0  0  0  0  0
    3.0000    0.0000    0.0000 C   0  0  0  0  0  0  0  0  0  0  0  0
    1.5000    0.0000    0.0000 C   0  0  0  0  0  0  0  0  0  0  0  0
    0.7500   -1.2990    0.0000 C   0  0  0  0  0  0  0  0  0  0  0  0
   -0.7500   -1.2990    0.0000 C   0  0  0  0  0  0  0  0  0  0  0  0
   -1.5000    0.0000    0.0000 C   0  0  0  0  0  0  0  0  0  0  0  0
   -0.7500    1.2990    0.0000 C   0  0  0  0  0  0  0  0  0  0  0  0
    0.7500    1.2990    0.0000 C   0  0  0  0  0  0  0  0  0  0  0  0
  1  2  1  0
  2  3  1  0
  3  4  1  0
  4  5  1  0
  5  6  2  0
  6  7  1  0
  7  8  2  0
  8  9  1  0
  9 10  2  0
 10  5  1  0
M  END
>  <Title>  (496) 
idAARDgen14

$$$$

     RDKit          2D

 13 14  0  0  0  0  0  0  0  0999 V2000
    3.0000    0.0000    0.0000 C   0  0  0  0  0  0  0  0  0  0  0  0
    1.5000    0.0000    0.0000 C   0  0  0  0  0  0  0  0  0  0  0  0
    0.7500   -1.2990    0.0000 C   0  0  0  0  0  0  0  0  0  0  0  0
   -0.7500   -1.2990    0.0000 C   0  0  0  0  0  0  0  0  0  0  0  0
   -1.5000    0.0000    0.0000 C   0  0  0  0  0  0  0  0  0  0  0  0
   -3.0000    0.0000    0.0000 N   0  0  0  0  0  0  0  0  0  0  0  0
   -3.7500    1.2990    0.0000 C   0  0  0  0  0  0  0  0  0  0  0  0
   -5.2500    1.2990    0.0000 C   0  0  0  0  0  0  0  0  0  0  0  0
   -6.0000    0.0000    0.0000 N   0  0  0  0  0  0  0  0  0  0  0  0
   -5.2500   -1.2990    0.0000 N   0  0  0  0  0  0  0  0  0  0  0  0
   -3.7500   -1.2990    0.0000 N   0  0  0  0  0  0  0  0  0  0  0  0
   -0.7500    1.2990    0.0000 C   0  0  0  0  0  0  0  0  0  0  0  0
    0.7500    1.2990    0.0000 C   0  0  0  0  0  0  0  0  0  0  0  0
  1  2  1  0
  2  3  2  0
  3  4  1  0
  4  5  2  0
  5  6  1  0
  6  7  1  0
  7  8  1  0
  8  9  2  0
  9 10  1  0
 10 11  2  0
  5 12  1  0
 12 13  2  0
 13  2  1  0
 11  6  1  0
M  END
>  <Title>  (497) 
idAAREgen14

$$$$

     RDKit          2D

 78 79  0  0  0  0  0  0  0  0999 V2000
   19.0520   -5.1014    0.0000 C   0  0  0  0  0  0  0  0  0  0  0  0
   18.7735   -3.6275    0.0000 C   0  0  0  0  0  0  0  0  0  0  0  0
   19.8021   -2.5358    0.0000 C   0  0  0  0  0  0  0  0  0  0  0  0
   19.0818   -1.2201    0.0000 C   0  0  0  0  0  0  0  0  0  0  0  0
   17.6078   -1.4986    0.0000 C   0  0  0  0  0  0  0  0  0  0  0  0
   17.6715    0.0000    0.0000 C   0  0  0  0  0  0  0  0  0  0  0  0
   17.6078    1.4986    0.0000 C   0  0  0  0  0  0  0  0  0  0  0  0
   17.4173    2.9865    0.0000 C   0  0  0  0  0  0  0  0  0  0  0  0
   17.1013    4.4528    0.0000 C   0  0  0  0  0  0  0  0  0  0  0  0
   16.6621    5.8871    0.0000 C   0  0  0  0  0  0  0  0  0  0  0  0
   16.1028    7.2789    0.0000 C   0  0  0  0  0  0  0  0  0  0  0  0
   15.4275    8.6183    0.0000 C   0  0  0  0  0  0  0  0  0  0  0  0
   14.6410    9.8956    0.0000 C   0  0  0  0  0  0  0  0  0  0  0  0
   13.7491   11.1016    0.0000 C   0  0  0  0  0  0  0  0  0  0  0  0
   12.7581   12.2276    0.0000 C   0  0  0  0  0  0  0  0  0  0  0  0
   11.6751   13.2655    0.0000 C   0  0  0  0  0  0  0  0  0  0  0  0
   10.5081   14.2078    0.0000 C   0  0  0  0  0  0  0  0  0  0  0  0
    9.2653   15.0478    0.0000 C   0  0  0  0  0  0  0  0  0  0  0  0
    7.9558   15.7793    0.0000 C   0  0  0  0  0  0  0  0  0  0  0  0
    6.5889   16.3972    0.0000 C   0  0  0  0  0  0  0  0  0  0  0  0
    5.1746   16.8969    0.0000 C   0  0  0  0  0  0  0  0  0  0  0  0
    3.7230   17.2749    0.0000 C   0  0  0  0  0  0  0  0  0  0  0  0
    2.2446   17.5284    0.0000 C   0  0  0  0  0  0  0  0  0  0  0  0
    0.7500   17.6556    0.0000 C   0  0  0  0  0  0  0  0  0  0  0  0
   -0.7500   17.6556    0.0000 C   0  0  0  0  0  0  0  0  0  0  0  0
   -2.2446   17.5284    0.0000 C   0  0  0  0  0  0  0  0  0  0  0  0
   -3.7230   17.2749    0.0000 C   0  0  0  0  0  0  0  0  0  0  0  0
   -5.1746   16.8969    0.0000 C   0  0  0  0  0  0  0  0  0  0  0  0
   -6.5889   16.3972    0.0000 C   0  0  0  0  0  0  0  0  0  0  0  0
   -7.9558   15.7793    0.0000 C   0  0  0  0  0  0  0  0  0  0  0  0
   -9.2653   15.0478    0.0000 C   0  0  0  0  0  0  0  0  0  0  0  0
  -10.5081   14.2078    0.0000 C   0  0  0  0  0  0  0  0  0  0  0  0
  -11.6751   13.2655    0.0000 C   0  0  0  0  0  0  0  0  0  0  0  0
  -12.7581   12.2276    0.0000 C   0  0  0  0  0  0  0  0  0  0  0  0
  -13.7491   11.1016    0.0000 C   0  0  0  0  0  0  0  0  0  0  0  0
  -14.6410    9.8956    0.0000 C   0  0  0  0  0  0  0  0  0  0  0  0
  -15.4275    8.6183    0.0000 C   0  0  0  0  0  0  0  0  0  0  0  0
  -16.1028    7.2789    0.0000 C   0  0  0  0  0  0  0  0  0  0  0  0
  -16.6621    5.8871    0.0000 C   0  0  0  0  0  0  0  0  0  0  0  0
  -17.1013    4.4528    0.0000 C   0  0  0  0  0  0  0  0  0  0  0  0
  -17.4173    2.9865    0.0000 C   0  0  0  0  0  0  0  0  0  0  0  0
  -17.6078    1.4986    0.0000 C   0  0  0  0  0  0  0  0  0  0  0  0
  -17.6715    0.0000    0.0000 C   0  0  0  0  0  0  0  0  0  0  0  0
  -17.6078   -1.4986    0.0000 C   0  0  0  0  0  0  0  0  0  0  0  0
  -17.4173   -2.9865    0.0000 C   0  0  0  0  0  0  0  0  0  0  0  0
  -17.1013   -4.4528    0.0000 C   0  0  0  0  0  0  0  0  0  0  0  0
  -16.6621   -5.8871    0.0000 C   0  0  0  0  0  0  0  0  0  0  0  0
  -16.1028   -7.2789    0.0000 C   0  0  0  0  0  0  0  0  0  0  0  0
  -15.4275   -8.6183    0.0000 C   0  0  0  0  0  0  0  0  0  0  0  0
  -14.6410   -9.8956    0.0000 C   0  0  0  0  0  0  0  0  0  0  0  0
  -13.7491  -11.1016    0.0000 C   0  0  0  0  0  0  0  0  0  0  0  0
  -12.7581  -12.2276    0.0000 C   0  0  0  0  0  0  0  0  0  0  0  0
  -11.6751  -13.2655    0.0000 C   0  0  0  0  0  0  0  0  0  0  0  0
  -10.5081  -14.2078    0.0000 C   0  0  0  0  0  0  0  0  0  0  0  0
   -9.2653  -15.0478    0.0000 C   0  0  0  0  0  0  0  0  0  0  0  0
   -7.9558  -15.7793    0.0000 C   0  0  0  0  0  0  0  0  0  0  0  0
   -6.5889  -16.3972    0.0000 C   0  0  0  0  0  0  0  0  0  0  0  0
   -5.1746  -16.8969    0.0000 C   0  0  0  0  0  0  0  0  0  0  0  0
   -3.7230  -17.2749    0.0000 C   0  0  0  0  0  0  0  0  0  0  0  0
   -2.2446  -17.5284    0.0000 C   0  0  0  0  0  0  0  0  0  0  0  0
   -0.7500  -17.6556    0.0000 C   0  0  0  0  0  0  0  0  0  0  0  0
    0.7500  -17.6556    0.0000 C   0  0  0  0  0  0  0  0  0  0  0  0
    2.2446  -17.5284    0.0000 C   0  0  0  0  0  0  0  0  0  0  0  0
    3.7230  -17.2749    0.0000 C   0  0  0  0  0  0  0  0  0  0  0  0
    5.1746  -16.8969    0.0000 C   0  0  0  0  0  0  0  0  0  0  0  0
    6.5889  -16.3972    0.0000 C   0  0  0  0  0  0  0  0  0  0  0  0
    7.9558  -15.7793    0.0000 C   0  0  0  0  0  0  0  0  0  0  0  0
    9.2653  -15.0478    0.0000 C   0  0  0  0  0  0  0  0  0  0  0  0
   10.5081  -14.2078    0.0000 C   0  0  0  0  0  0  0  0  0  0  0  0
   11.6751  -13.2655    0.0000 C   0  0  0  0  0  0  0  0  0  0  0  0
   12.7581  -12.2276    0.0000 C   0  0  0  0  0  0  0  0  0  0  0  0
   13.7491  -11.1016    0.0000 C   0  0  0  0  0  0  0  0  0  0  0  0
   14.6410   -9.8956    0.0000 C   0  0  0  0  0  0  0  0  0  0  0  0
   15.4275   -8.6183    0.0000 C   0  0  0  0  0  0  0  0  0  0  0  0
   16.1028   -7.2789    0.0000 C   0  0  0  0  0  0  0  0  0  0  0  0
   16.6621   -5.8871    0.0000 C   0  0  0  0  0  0  0  0  0  0  0  0
   17.1013   -4.4528    0.0000 C   0  0  0  0  0  0  0  0  0  0  0  0
   17.4173   -2.9865    0.0000 C   0  0  0  0  0  0  0  0  0  0  0  0
  1  2  1  0
  2  3  1  0
  3  4  1  0
  4  5  1  0
  5  6  1  0
  6  7  1  0
  7  8  1  0
  8  9  1  0
  9 10  1  0
 10 11  1  0
 11 12  1  0
 12 13  1  0
 13 14  1  0
 14 15  1  0
 15 16  1  0
 16 17  1  0
 17 18  1  0
 18 19  1  0
 19 20  1  0
 20 21  1  0
 21 22  1  0
 22 23  1  0
 23 24  1  0
 24 25  1  0
 25 26  1  0
 26 27  1  0
 27 28  1  0
 28 29  1  0
 29 30  1  0
 30 31  1  0
 31 32  1  0
 32 33  1  0
 33 34  1  0
 34 35  1  0
 35 36  1  0
 36 37  1  0
 37 38  1  0
 38 39  1  0
 39 40  1  0
 40 41  1  0
 41 42  1  0
 42 43  1  0
 43 44  1  0
 44 45  1  0
 45 46  1  0
 46 47  1  0
 47 48  2  0
 48 49  1  0
 49 50  2  0
 50 51  1  0
 51 52  2  0
 52 53  1  0
 53 54  2  0
 54 55  1  0
 55 56  2  0
 56 57  1  0
 57 58  2  0
 58 59  1  0
 59 60  2  0
 60 61  1  0
 61 62  2  0
 62 63  1  0
 63 64  2  0
 64 65  1  0
 65 66  2  0
 66 67  1  0
 67 68  2  0
 68 69  1  0
 69 70  2  0
 70 71  1  0
 71 72  2  0
 72 73  1  0
 73 74  2  0
 74 75  1  0
 75 76  2  0
 76 77  1  0
 77 78  2  0
 78  2  1  0
 78  5  1  0
M  END
>  <Title>  (498) 
idAARFgen14

$$$$

     RDKit          2D

 13 13  0  0  0  0  0  0  0  0999 V2000
    7.5000   -2.5981    0.0000 C   0  0  0  0  0  0  0  0  0  0  0  0
    6.0000   -2.5981    0.0000 C   0  0  0  0  0  0  0  0  0  0  0  0
    5.2500   -3.8971    0.0000 C   0  0  0  0  0  0  0  0  0  0  0  0
    5.2500   -1.2990    0.0000 C   0  0  0  0  0  0  0  0  0  0  0  0
    3.7500   -1.2990    0.0000 C   0  0  0  0  0  0  0  0  0  0  0  0
    3.0000   -2.5981    0.0000 O   0  0  0  0  0  0  0  0  0  0  0  0
    3.0000    0.0000    0.0000 N   0  0  0  0  0  0  0  0  0  0  0  0
    1.5000    0.0000    0.0000 C   0  0  0  0  0  0  0  0  0  0  0  0
    0.7500   -1.2990    0.0000 C   0  0  0  0  0  0  0  0  0  0  0  0
   -0.7500   -1.2990    0.0000 C   0  0  0  0  0  0  0  0  0  0  0  0
   -1.5000    0.0000    0.0000 C   0  0  0  0  0  0  0  0  0  0  0  0
   -0.7500    1.2990    0.0000 C   0  0  0  0  0  0  0  0  0  0  0  0
    0.7500    1.2990    0.0000 C   0  0  0  0  0  0  0  0  0  0  0  0
  1  2  1  0
  2  3  1  0
  2  4  1  0
  4  5  1  0
  5  6  2  0
  5  7  1  0
  7  8  1  0
  8  9  2  0
  9 10  1  0
 10 11  1  0
 11 12  1  0
 12 13  2  0
 13  8  1  0
M  END
>  <Title>  (499) 
idAARGgen14

$$$$

     RDKit          2D

 10 11  0  0  0  0  0  0  0  0999 V2000
   -2.6401   -3.1891    0.0000 C   0  0  0  0  0  0  0  0  0  0  0  0
   -1.2135   -2.7256    0.0000 C   0  0  0  0  0  0  0  0  0  0  0  0
   -0.0000   -3.6073    0.0000 C   0  0  0  0  0  0  0  0  0  0  0  0
    1.2135   -2.7256    0.0000 C   0  0  0  0  0  0  0  0  0  0  0  0
    0.7500   -1.2990    0.0000 C   0  0  0  0  0  0  0  0  0  0  0  0
    1.5000    0.0000    0.0000 C   0  0  0  0  0  0  0  0  0  0  0  0
    0.7500    1.2990    0.0000 C   0  0  0  0  0  0  0  0  0  0  0  0
   -0.7500    1.2990    0.0000 C   0  0  0  0  0  0  0  0  0  0  0  0
   -1.5000    0.0000    0.0000 N   0  0  0  0  0  0  0  0  0  0  0  0
   -0.7500   -1.2990    0.0000 C   0  0  0  0  0  0  0  0  0  0  0  0
  1  2  1  0
  2  3  1  0
  3  4  1  0
  4  5  1  0
  5  6  2  0
  6  7  1  0
  7  8  2  0
  8  9  1  0
  9 10  2  0
 10  2  1  0
 10  5  1  0
M  END
>  <Title>  (500) 
idAARHgen14

$$$$

     RDKit          2D

  3  2  0  0  0  0  0  0  0  0999 V2000
    0.0000    0.0000    0.0000 C   0  0  0  0  0  0  0  0  0  0  0  0
    1.2990    0.7500    0.0000 C   0  0  0  0  0  0  0  0  0  0  0  0
    2.5981   -0.0000    0.0000 C   0  0  0  0  0  0  0  0  0  0  0  0
  1  2  1  0
  2  3  1  0
M  END
>  <Title>  (501) 
idAARIgen14

$$$$

     RDKit          2D

  7  6  0  0  0  0  0  0  0  0999 V2000
    0.0000    0.0000    0.0000 C   0  0  0  0  0  0  0  0  0  0  0  0
   -0.0000   -1.5000    0.0000 C   0  0  0  0  0  0  0  0  0  0  0  0
   -0.0000   -3.0000    0.0000 C   0  0  0  0  0  0  0  0  0  0  0  0
    1.2990   -3.7500    0.0000 C   0  0  0  0  0  0  0  0  0  0  0  0
    1.2990   -5.2500    0.0000 C   0  0  0  0  0  0  0  0  0  0  0  0
    2.5981   -6.0000    0.0000 C   0  0  0  0  0  0  0  0  0  0  0  0
   -0.0000   -6.0000    0.0000 C   0  0  0  0  0  0  0  0  0  0  0  0
  1  2  3  0
  2  3  1  0
  3  4  1  0
  4  5  1  0
  5  6  1  0
  5  7  1  0
M  END
>  <Title>  (502) 
idAARJgen14

$$$$

     RDKit          2D

  9  9  0  0  0  0  0  0  0  0999 V2000
    5.2500   -1.2990    0.0000 C   0  0  0  0  0  0  0  0  0  0  0  0
    3.7500   -1.2990    0.0000 C   0  0  0  0  0  0  0  0  0  0  0  0
    3.0000    0.0000    0.0000 C   0  0  0  0  0  0  0  0  0  0  0  0
    1.5000    0.0000    0.0000 C   0  0  0  0  0  0  0  0  0  0  0  0
    0.7500   -1.2990    0.0000 C   0  0  0  0  0  0  0  0  0  0  0  0
   -0.7500   -1.2990    0.0000 C   0  0  0  0  0  0  0  0  0  0  0  0
   -1.5000    0.0000    0.0000 C   0  0  0  0  0  0  0  0  0  0  0  0
   -0.7500    1.2990    0.0000 C   0  0  0  0  0  0  0  0  0  0  0  0
    0.7500    1.2990    0.0000 C   0  0  0  0  0  0  0  0  0  0  0  0
  1  2  1  0
  2  3  1  0
  3  4  1  0
  4  5  2  0
  5  6  1  0
  6  7  1  0
  7  8  1  0
  8  9  2  0
  9  4  1  0
M  END
>  <Title>  (503) 
idAARKgen14

$$$$

     RDKit          2D

 15 14  0  0  0  0  0  0  0  0999 V2000
    0.0000    0.0000    0.0000 C   0  0  0  0  0  0  0  0  0  0  0  0
    1.2990    0.7500    0.0000 C   0  0  0  0  0  0  0  0  0  0  0  0
    2.5981   -0.0000    0.0000 C   0  0  0  0  0  0  0  0  0  0  0  0
    3.8971    0.7500    0.0000 C   0  0  0  0  0  0  0  0  0  0  0  0
    5.1962   -0.0000    0.0000 C   0  0  0  0  0  0  0  0  0  0  0  0
    6.4952    0.7500    0.0000 C   0  0  0  0  0  0  0  0  0  0  0  0
    7.7942   -0.0000    0.0000 C   0  0  0  0  0  0  0  0  0  0  0  0
    9.0933    0.7500    0.0000 C   0  0  0  0  0  0  0  0  0  0  0  0
   10.3923   -0.0000    0.0000 C   0  0  0  0  0  0  0  0  0  0  0  0
   11.6913    0.7500    0.0000 C   0  0  0  0  0  0  0  0  0  0  0  0
   12.9904   -0.0000    0.0000 C   0  0  0  0  0  0  0  0  0  0  0  0
   14.2894    0.7500    0.0000 C   0  0  0  0  0  0  0  0  0  0  0  0
   15.5885   -0.0000    0.0000 C   0  0  0  0  0  0  0  0  0  0  0  0
   16.8875    0.7500    0.0000 C   0  0  0  0  0  0  0  0  0  0  0  0
   18.1865   -0.0000    0.0000 C   0  0  0  0  0  0  0  0  0  0  0  0
  1  2  1  0
  2  3  1  0
  3  4  1  0
  4  5  1  0
  5  6  1  0
  6  7  1  0
  7  8  1  0
  8  9  1  0
  9 10  1  0
 10 11  1  0
 11 12  1  0
 12 13  1  0
 13 14  1  0
 14 15  1  0
M  END
>  <Title>  (504) 
idAARLgen14

$$$$

     RDKit          2D

 37 41  0  0  0  0  0  0  0  0999 V2000
   -3.0000   -5.1962    0.0000 O   0  0  0  0  0  0  0  0  0  0  0  0
   -3.7500   -3.8971    0.0000 C   0  0  0  0  0  0  0  0  0  0  0  0
   -5.2500   -3.8971    0.0000 O   0  0  0  0  0  0  0  0  0  0  0  0
   -3.0000   -2.5981    0.0000 N   0  0  0  0  0  0  0  0  0  0  0  0
   -1.5000   -2.5981    0.0000 C   0  0  0  0  0  0  0  0  0  0  0  0
   -0.7500   -3.8971    0.0000 C   0  0  0  0  0  0  0  0  0  0  0  0
    0.7500   -3.8971    0.0000 C   0  0  0  0  0  0  0  0  0  0  0  0
    1.5000   -2.5981    0.0000 C   0  0  0  0  0  0  0  0  0  0  0  0
    3.0000   -2.5981    0.0000 C   0  0  0  0  0  0  0  0  0  0  0  0
    3.7500   -1.2990    0.0000 O   0  0  0  0  0  0  0  0  0  0  0  0
    3.7500   -3.8971    0.0000 N   0  0  0  0  0  0  0  0  0  0  0  0
    5.2500   -3.8971    0.0000 C   0  0  0  0  0  0  0  0  0  0  0  0
    6.1317   -2.6836    0.0000 N   0  0  0  0  0  0  0  0  0  0  0  0
    7.5583   -3.1471    0.0000 N   0  0  0  0  0  0  0  0  0  0  0  0
    7.5583   -4.6471    0.0000 N   0  0  0  0  0  0  0  0  0  0  0  0
    6.1317   -5.1106    0.0000 N   0  0  0  0  0  0  0  0  0  0  0  0
    5.6682   -6.5372    0.0000 N   0  0  0  0  0  0  0  0  0  0  0  0
    6.5498   -7.7508    0.0000 C   0  0  0  0  0  0  0  0  0  0  0  0
    5.6682   -8.9643    0.0000 C   0  0  0  0  0  0  0  0  0  0  0  0
    4.2416   -8.5008    0.0000 N   0  0  0  0  0  0  0  0  0  0  0  0
    3.0280   -9.3824    0.0000 C   0  0  0  0  0  0  0  0  0  0  0  0
    3.1848  -10.8742    0.0000 O   0  0  0  0  0  0  0  0  0  0  0  0
    1.6577   -8.7723    0.0000 N   0  0  0  0  0  0  0  0  0  0  0  0
    0.4442   -9.6540    0.0000 C   0  0  0  0  0  0  0  0  0  0  0  0
   -0.9261   -9.0439    0.0000 N   0  0  0  0  0  0  0  0  0  0  0  0
   -2.1396   -9.9256    0.0000 N   0  0  0  0  0  0  0  0  0  0  0  0
   -1.9829  -11.4174    0.0000 N   0  0  0  0  0  0  0  0  0  0  0  0
   -0.6125  -12.0275    0.0000 N   0  0  0  0  0  0  0  0  0  0  0  0
    0.6010  -11.1458    0.0000 N   0  0  0  0  0  0  0  0  0  0  0  0
    4.2416   -7.0008    0.0000 C   0  0  0  0  0  0  0  0  0  0  0  0
    3.0280   -6.1191    0.0000 O   0  0  0  0  0  0  0  0  0  0  0  0
    0.7500   -1.2990    0.0000 C   0  0  0  0  0  0  0  0  0  0  0  0
    1.5000    0.0000    0.0000 C   0  0  0  0  0  0  0  0  0  0  0  0
    0.7500    1.2990    0.0000 C   0  0  0  0  0  0  0  0  0  0  0  0
   -0.7500    1.2990    0.0000 C   0  0  0  0  0  0  0  0  0  0  0  0
   -1.5000    0.0000    0.0000 C   0  0  0  0  0  0  0  0  0  0  0  0
   -0.7500   -1.2990    0.0000 C   0  0  0  0  0  0  0  0  0  0  0  0
  1  2  2  0
  2  3  1  0
  2  4  1  0
  4  5  1  0
  5  6  2  0
  6  7  1  0
  7  8  2  0
  8  9  1  0
  9 10  2  0
  9 11  1  0
 11 12  1  0
 12 13  2  0
 13 14  1  0
 14 15  2  0
 15 16  1  0
 16 17  1  0
 17 18  1  0
 18 19  1  0
 19 20  1  0
 20 21  1  0
 21 22  2  0
 21 23  1  0
 23 24  1  0
 24 25  2  0
 25 26  1  0
 26 27  2  0
 27 28  1  0
 28 29  2  0
 20 30  1  0
 30 31  2  0
  8 32  1  0
 32 33  2  0
 33 34  1  0
 34 35  2  0
 35 36  1  0
 36 37  2  0
 37  5  1  0
 16 12  1  0
 30 17  1  0
 37 32  1  0
 29 24  1  0
M  END
>  <Title>  (505) 
idAARMgen14

$$$$

     RDKit          2D

 35 39  0  0  0  0  0  0  0  0999 V2000
   -2.6491   -1.6339    0.0000 C   0  0  0  0  0  0  0  0  0  0  0  0
   -1.5000   -2.5981    0.0000 C   0  0  0  0  0  0  0  0  0  0  0  0
   -2.6491   -3.5623    0.0000 C   0  0  0  0  0  0  0  0  0  0  0  0
   -0.7500   -3.8971    0.0000 N   0  0  0  0  0  0  0  0  0  0  0  0
    0.7500   -3.8971    0.0000 C   0  0  0  0  0  0  0  0  0  0  0  0
    1.5000   -2.5981    0.0000 C   0  0  0  0  0  0  0  0  0  0  0  0
    3.0000   -2.5981    0.0000 C   0  0  0  0  0  0  0  0  0  0  0  0
    3.7500   -1.2990    0.0000 O   0  0  0  0  0  0  0  0  0  0  0  0
    3.7500   -3.8971    0.0000 N   0  0  0  0  0  0  0  0  0  0  0  0
    5.2500   -3.8971    0.0000 C   0  0  0  0  0  0  0  0  0  0  0  0
    6.1317   -2.6836    0.0000 N   0  0  0  0  0  0  0  0  0  0  0  0
    7.5583   -3.1471    0.0000 N   0  0  0  0  0  0  0  0  0  0  0  0
    7.5583   -4.6471    0.0000 N   0  0  0  0  0  0  0  0  0  0  0  0
    6.1317   -5.1106    0.0000 N   0  0  0  0  0  0  0  0  0  0  0  0
    5.6682   -6.5372    0.0000 N   0  0  0  0  0  0  0  0  0  0  0  0
    6.5498   -7.7508    0.0000 C   0  0  0  0  0  0  0  0  0  0  0  0
    5.6682   -8.9643    0.0000 C   0  0  0  0  0  0  0  0  0  0  0  0
    4.2416   -8.5008    0.0000 N   0  0  0  0  0  0  0  0  0  0  0  0
    3.0280   -9.3824    0.0000 C   0  0  0  0  0  0  0  0  0  0  0  0
    3.1848  -10.8742    0.0000 O   0  0  0  0  0  0  0  0  0  0  0  0
    1.6577   -8.7723    0.0000 N   0  0  0  0  0  0  0  0  0  0  0  0
    0.4442   -9.6540    0.0000 C   0  0  0  0  0  0  0  0  0  0  0  0
   -0.9261   -9.0439    0.0000 N   0  0  0  0  0  0  0  0  0  0  0  0
   -2.1396   -9.9256    0.0000 N   0  0  0  0  0  0  0  0  0  0  0  0
   -1.9829  -11.4174    0.0000 N   0  0  0  0  0  0  0  0  0  0  0  0
   -0.6125  -12.0275    0.0000 N   0  0  0  0  0  0  0  0  0  0  0  0
    0.6010  -11.1458    0.0000 N   0  0  0  0  0  0  0  0  0  0  0  0
    4.2416   -7.0008    0.0000 C   0  0  0  0  0  0  0  0  0  0  0  0
    3.0280   -6.1191    0.0000 O   0  0  0  0  0  0  0  0  0  0  0  0
    0.7500   -1.2990    0.0000 C   0  0  0  0  0  0  0  0  0  0  0  0
    1.5000    0.0000    0.0000 C   0  0  0  0  0  0  0  0  0  0  0  0
    0.7500    1.2990    0.0000 C   0  0  0  0  0  0  0  0  0  0  0  0
   -0.7500    1.2990    0.0000 C   0  0  0  0  0  0  0  0  0  0  0  0
   -1.5000    0.0000    0.0000 C   0  0  0  0  0  0  0  0  0  0  0  0
   -0.7500   -1.2990    0.0000 C   0  0  0  0  0  0  0  0  0  0  0  0
  1  2  1  0
  2  3  1  0
  2  4  1  0
  4  5  1  0
  5  6  1  0
  6  7  1  0
  7  8  2  0
  7  9  1  0
  9 10  1  0
 10 11  2  0
 11 12  1  0
 12 13  2  0
 13 14  1  0
 14 15  1  0
 15 16  1  0
 16 17  1  0
 17 18  1  0
 18 19  1  0
 19 20  2  0
 19 21  1  0
 21 22  1  0
 22 23  2  0
 23 24  1  0
 24 25  2  0
 25 26  1  0
 26 27  2  0
 18 28  1  0
 28 29  2  0
  6 30  1  0
 30 31  2  0
 31 32  1  0
 32 33  2  0
 33 34  1  0
 34 35  2  0
 35  2  1  0
 14 10  1  0
 28 15  1  0
 35 30  1  0
 27 22  1  0
M  END
>  <Title>  (506) 
idAARNgen14

$$$$

     RDKit          2D

 10  9  0  0  0  0  0  0  0  0999 V2000
    0.0000    0.0000    0.0000 C   0  0  0  0  0  0  0  0  0  0  0  0
    1.2990    0.7500    0.0000 C   0  0  0  0  0  0  0  0  0  0  0  0
    2.5981   -0.0000    0.0000 C   0  0  0  0  0  0  0  0  0  0  0  0
    3.8971    0.7500    0.0000 C   0  0  0  0  0  0  0  0  0  0  0  0
    5.1962   -0.0000    0.0000 C   0  0  0  0  0  0  0  0  0  0  0  0
    3.8971    2.2500    0.0000 N   0  0  0  0  0  0  0  0  0  0  0  0
    5.1962    3.0000    0.0000 C   0  0  0  0  0  0  0  0  0  0  0  0
    5.1962    4.5000    0.0000 C   0  0  0  0  0  0  0  0  0  0  0  0
    6.4952    2.2500    0.0000 C   0  0  0  0  0  0  0  0  0  0  0  0
    7.7942    3.0000    0.0000 C   0  0  0  0  0  0  0  0  0  0  0  0
  1  2  1  0
  2  3  1  0
  3  4  1  0
  4  5  1  0
  4  6  1  0
  6  7  1  0
  7  8  1  0
  7  9  1  0
  9 10  1  0
M  END
>  <Title>  (507) 
idAAROgen14

$$$$

     RDKit          2D

 93 94  0  0  0  0  0  0  0  0999 V2000
    7.8552    4.3834    0.0000 C   0  0  0  0  0  0  0  0  0  0  0  0
    8.6504    4.4394    0.0000 C   0  0  0  0  0  0  0  0  0  0  0  0
    8.6306    5.9393    0.0000 C   0  0  0  0  0  0  0  0  0  0  0  0
    8.7819    7.4316    0.0000 C   0  0  0  0  0  0  0  0  0  0  0  0
    9.1024    8.8970    0.0000 C   0  0  0  0  0  0  0  0  0  0  0  0
    9.5878   10.3163    0.0000 C   0  0  0  0  0  0  0  0  0  0  0  0
   10.2318   11.6710    0.0000 C   0  0  0  0  0  0  0  0  0  0  0  0
   11.0261   12.9434    0.0000 C   0  0  0  0  0  0  0  0  0  0  0  0
   11.9602   14.1171    0.0000 C   0  0  0  0  0  0  0  0  0  0  0  0
   13.0220   15.1765    0.0000 C   0  0  0  0  0  0  0  0  0  0  0  0
   14.1977   16.1081    0.0000 C   0  0  0  0  0  0  0  0  0  0  0  0
   15.4719   16.8996    0.0000 C   0  0  0  0  0  0  0  0  0  0  0  0
   16.8280   17.5406    0.0000 C   0  0  0  0  0  0  0  0  0  0  0  0
   18.2484   18.0229    0.0000 C   0  0  0  0  0  0  0  0  0  0  0  0
   19.7144   18.3401    0.0000 C   0  0  0  0  0  0  0  0  0  0  0  0
   21.2071   18.4882    0.0000 C   0  0  0  0  0  0  0  0  0  0  0  0
   22.7069   18.4651    0.0000 C   0  0  0  0  0  0  0  0  0  0  0  0
   24.1944   18.2712    0.0000 C   0  0  0  0  0  0  0  0  0  0  0  0
   25.6500   17.9091    0.0000 C   0  0  0  0  0  0  0  0  0  0  0  0
   27.0548   17.3833    0.0000 C   0  0  0  0  0  0  0  0  0  0  0  0
   28.3906   16.7009    0.0000 C   0  0  0  0  0  0  0  0  0  0  0  0
   29.6398   15.8706    0.0000 C   0  0  0  0  0  0  0  0  0  0  0  0
   30.7863   14.9033    0.0000 C   0  0  0  0  0  0  0  0  0  0  0  0
   31.8151   13.8117    0.0000 C   0  0  0  0  0  0  0  0  0  0  0  0
   32.7127   12.6099    0.0000 C   0  0  0  0  0  0  0  0  0  0  0  0
   33.4674   11.3136    0.0000 C   0  0  0  0  0  0  0  0  0  0  0  0
   34.0695    9.9397    0.0000 C   0  0  0  0  0  0  0  0  0  0  0  0
   34.5110    8.5062    0.0000 C   0  0  0  0  0  0  0  0  0  0  0  0
   34.7862    7.0317    0.0000 C   0  0  0  0  0  0  0  0  0  0  0  0
   34.8916    5.5354    0.0000 C   0  0  0  0  0  0  0  0  0  0  0  0
   34.8257    4.0368    0.0000 C   0  0  0  0  0  0  0  0  0  0  0  0
   34.5894    2.5555    0.0000 C   0  0  0  0  0  0  0  0  0  0  0  0
   34.1859    1.1109    0.0000 C   0  0  0  0  0  0  0  0  0  0  0  0
   33.6202   -0.2784    0.0000 C   0  0  0  0  0  0  0  0  0  0  0  0
   32.8999   -1.5941    0.0000 C   0  0  0  0  0  0  0  0  0  0  0  0
   32.0343   -2.8192    0.0000 C   0  0  0  0  0  0  0  0  0  0  0  0
   31.0347   -3.9376    0.0000 C   0  0  0  0  0  0  0  0  0  0  0  0
   29.9141   -4.9347    0.0000 C   0  0  0  0  0  0  0  0  0  0  0  0
   28.6872   -5.7976    0.0000 C   0  0  0  0  0  0  0  0  0  0  0  0
   27.3699   -6.5150    0.0000 C   0  0  0  0  0  0  0  0  0  0  0  0
   25.9794   -7.0776    0.0000 C   0  0  0  0  0  0  0  0  0  0  0  0
   24.5338   -7.4780    0.0000 C   0  0  0  0  0  0  0  0  0  0  0  0
   23.0520   -7.7111    0.0000 C   0  0  0  0  0  0  0  0  0  0  0  0
   21.5533   -7.7737    0.0000 C   0  0  0  0  0  0  0  0  0  0  0  0
   20.0572   -7.6650    0.0000 C   0  0  0  0  0  0  0  0  0  0  0  0
   18.5833   -7.3865    0.0000 C   0  0  0  0  0  0  0  0  0  0  0  0
   17.1507   -6.9419    0.0000 C   0  0  0  0  0  0  0  0  0  0  0  0
   15.7782   -6.3368    0.0000 C   0  0  0  0  0  0  0  0  0  0  0  0
   14.4836   -5.5792    0.0000 C   0  0  0  0  0  0  0  0  0  0  0  0
   13.2838   -4.6789    0.0000 C   0  0  0  0  0  0  0  0  0  0  0  0
   12.1944   -3.6478    0.0000 C   0  0  0  0  0  0  0  0  0  0  0  0
   11.2296   -2.4992    0.0000 C   0  0  0  0  0  0  0  0  0  0  0  0
   10.4021   -1.2481    0.0000 C   0  0  0  0  0  0  0  0  0  0  0  0
    9.7226    0.0891    0.0000 C   0  0  0  0  0  0  0  0  0  0  0  0
    9.1999    1.4951    0.0000 C   0  0  0  0  0  0  0  0  0  0  0  0
    8.6206   -0.0000    0.0000 C   0  0  0  0  0  0  0  0  0  0  0  0
    8.5090   -1.3828    0.0000 C   0  0  0  0  0  0  0  0  0  0  0  0
    8.1770   -2.7299    0.0000 C   0  0  0  0  0  0  0  0  0  0  0  0
    7.6332   -4.0062    0.0000 C   0  0  0  0  0  0  0  0  0  0  0  0
    6.8917   -5.1788    0.0000 C   0  0  0  0  0  0  0  0  0  0  0  0
    5.9717   -6.2172    0.0000 C   0  0  0  0  0  0  0  0  0  0  0  0
    4.8971   -7.0946    0.0000 C   0  0  0  0  0  0  0  0  0  0  0  0
    3.6956   -7.7883    0.0000 C   0  0  0  0  0  0  0  0  0  0  0  0
    2.3984   -8.2803    0.0000 C   0  0  0  0  0  0  0  0  0  0  0  0
    1.0391   -8.5578    0.0000 C   0  0  0  0  0  0  0  0  0  0  0  0
   -0.3471   -8.6136    0.0000 C   0  0  0  0  0  0  0  0  0  0  0  0
   -1.7243   -8.4464    0.0000 C   0  0  0  0  0  0  0  0  0  0  0  0
   -3.0569   -8.0604    0.0000 C   0  0  0  0  0  0  0  0  0  0  0  0
   -4.3103   -7.4657    0.0000 C   0  0  0  0  0  0  0  0  0  0  0  0
   -5.4521   -6.6776    0.0000 C   0  0  0  0  0  0  0  0  0  0  0  0
   -6.4526   -5.7165    0.0000 C   0  0  0  0  0  0  0  0  0  0  0  0
   -7.2861   -4.6074    0.0000 C   0  0  0  0  0  0  0  0  0  0  0  0
   -7.9308   -3.3790    0.0000 C   0  0  0  0  0  0  0  0  0  0  0  0
   -8.3701   -2.0631    0.0000 C   0  0  0  0  0  0  0  0  0  0  0  0
   -8.5927   -0.6937    0.0000 C   0  0  0  0  0  0  0  0  0  0  0  0
   -8.5927    0.6937    0.0000 C   0  0  0  0  0  0  0  0  0  0  0  0
   -8.3701    2.0631    0.0000 C   0  0  0  0  0  0  0  0  0  0  0  0
   -7.9308    3.3790    0.0000 C   0  0  0  0  0  0  0  0  0  0  0  0
   -7.2861    4.6074    0.0000 C   0  0  0  0  0  0  0  0  0  0  0  0
   -6.4526    5.7165    0.0000 C   0  0  0  0  0  0  0  0  0  0  0  0
   -5.4521    6.6776    0.0000 C   0  0  0  0  0  0  0  0  0  0  0  0
   -4.3103    7.4657    0.0000 C   0  0  0  0  0  0  0  0  0  0  0  0
   -3.0569    8.0604    0.0000 C   0  0  0  0  0  0  0  0  0  0  0  0
   -1.7243    8.4464    0.0000 C   0  0  0  0  0  0  0  0  0  0  0  0
   -0.3471    8.6136    0.0000 C   0  0  0  0  0  0  0  0  0  0  0  0
    1.0391    8.5578    0.0000 C   0  0  0  0  0  0  0  0  0  0  0  0
    2.3984    8.2803    0.0000 C   0  0  0  0  0  0  0  0  0  0  0  0
    3.6956    7.7883    0.0000 C   0  0  0  0  0  0  0  0  0  0  0  0
    4.8971    7.0946    0.0000 C   0  0  0  0  0  0  0  0  0  0  0  0
    5.9717    6.2172    0.0000 C   0  0  0  0  0  0  0  0  0  0  0  0
    6.8917    5.1788    0.0000 C   0  0  0  0  0  0  0  0  0  0  0  0
    7.6332    4.0062    0.0000 C   0  0  0  0  0  0  0  0  0  0  0  0
    8.8410    2.9515    0.0000 C   0  0  0  0  0  0  0  0  0  0  0  0
  1  2  1  0
  2  3  1  0
  3  4  1  0
  4  5  1  0
  5  6  1  0
  6  7  1  0
  7  8  1  0
  8  9  1  0
  9 10  1  0
 10 11  1  0
 11 12  1  0
 12 13  1  0
 13 14  1  0
 14 15  1  0
 15 16  1  0
 16 17  1  0
 17 18  1  0
 18 19  1  0
 19 20  1  0
 20 21  1  0
 21 22  1  0
 22 23  1  0
 23 24  1  0
 24 25  1  0
 25 26  1  0
 26 27  1  0
 27 28  1  0
 28 29  1  0
 29 30  1  0
 30 31  1  0
 31 32  1  0
 32 33  1  0
 33 34  1  0
 34 35  1  0
 35 36  1  0
 36 37  1  0
 37 38  1  0
 38 39  1  0
 39 40  1  0
 40 41  1  0
 41 42  1  0
 42 43  1  0
 43 44  1  0
 44 45  1  0
 45 46  1  0
 46 47  1  0
 47 48  1  0
 48 49  1  0
 49 50  1  0
 50 51  1  0
 51 52  1  0
 52 53  1  0
 53 54  1  0
 54 55  1  0
 55 56  1  0
 56 57  1  0
 57 58  1  0
 58 59  1  0
 59 60  1  0
 60 61  1  0
 61 62  1  0
 62 63  1  0
 63 64  1  0
 64 65  1  0
 65 66  1  0
 66 67  1  0
 67 68  1  0
 68 69  2  0
 69 70  1  0
 70 71  2  0
 71 72  1  0
 72 73  2  0
 73 74  1  0
 74 75  2  0
 75 76  1  0
 76 77  2  0
 77 78  1  0
 78 79  2  0
 79 80  1  0
 80 81  2  0
 81 82  1  0
 82 83  2  0
 83 84  1  0
 84 85  2  0
 85 86  1  0
 86 87  2  0
 87 88  1  0
 88 89  2  0
 89 90  1  0
 90 91  2  0
 91 92  1  0
 92 93  2  0
 93  2  1  0
 93 55  1  0
M  END
>  <Title>  (508) 
idAARPgen14

$$$$

     RDKit          2D

 18 18  0  0  0  0  0  0  0  0999 V2000
   10.5000    0.0000    0.0000 C   0  0  0  0  0  0  0  0  0  0  0  0
    9.7500   -1.2990    0.0000 C   0  0  0  0  0  0  0  0  0  0  0  0
   10.5000   -2.5981    0.0000 C   0  0  0  0  0  0  0  0  0  0  0  0
    8.2500   -1.2990    0.0000 C   0  0  0  0  0  0  0  0  0  0  0  0
    7.5000   -2.5981    0.0000 C   0  0  0  0  0  0  0  0  0  0  0  0
    8.2500   -3.8971    0.0000 C   0  0  0  0  0  0  0  0  0  0  0  0
    6.0000   -2.5981    0.0000 N   0  0  0  0  0  0  0  0  0  0  0  0
    5.2500   -1.2990    0.0000 C   0  0  0  0  0  0  0  0  0  0  0  0
    6.0000    0.0000    0.0000 O   0  0  0  0  0  0  0  0  0  0  0  0
    3.7500   -1.2990    0.0000 N   0  0  0  0  0  0  0  0  0  0  0  0
    3.0000    0.0000    0.0000 C   0  0  0  0  0  0  0  0  0  0  0  0
    1.5000    0.0000    0.0000 C   0  0  0  0  0  0  0  0  0  0  0  0
    0.7500   -1.2990    0.0000 C   0  0  0  0  0  0  0  0  0  0  0  0
   -0.7500   -1.2990    0.0000 C   0  0  0  0  0  0  0  0  0  0  0  0
   -1.5000    0.0000    0.0000 C   0  0  0  0  0  0  0  0  0  0  0  0
   -3.0000    0.0000    0.0000 F   0  0  0  0  0  0  0  0  0  0  0  0
   -0.7500    1.2990    0.0000 C   0  0  0  0  0  0  0  0  0  0  0  0
    0.7500    1.2990    0.0000 C   0  0  0  0  0  0  0  0  0  0  0  0
  1  2  1  0
  2  3  1  0
  2  4  1  0
  4  5  1  0
  5  6  1  0
  5  7  1  0
  7  8  1  0
  8  9  2  0
  8 10  1  0
 10 11  1  0
 11 12  1  0
 12 13  2  0
 13 14  1  0
 14 15  2  0
 15 16  1  0
 15 17  1  0
 17 18  2  0
 18 12  1  0
M  END
>  <Title>  (509) 
idAARQgen14

$$$$

     RDKit          2D

 32 36  0  0  0  0  0  0  0  0999 V2000
   -1.3240   -6.3062    0.0000 C   0  0  0  0  0  0  0  0  0  0  0  0
   -0.7500   -4.9204    0.0000 C   0  0  0  0  0  0  0  0  0  0  0  0
    0.7500   -4.9204    0.0000 C   0  0  0  0  0  0  0  0  0  0  0  0
    1.8107   -3.8597    0.0000 C   0  0  0  0  0  0  0  0  0  0  0  0
    1.8107   -2.3597    0.0000 C   0  0  0  0  0  0  0  0  0  0  0  0
    3.1965   -1.7857    0.0000 C   0  0  0  0  0  0  0  0  0  0  0  0
    3.3923   -0.2985    0.0000 O   0  0  0  0  0  0  0  0  0  0  0  0
    4.3865   -2.6988    0.0000 N   0  0  0  0  0  0  0  0  0  0  0  0
    5.7723   -2.1248    0.0000 C   0  0  0  0  0  0  0  0  0  0  0  0
    6.1225   -0.6662    0.0000 N   0  0  0  0  0  0  0  0  0  0  0  0
    7.6179   -0.5485    0.0000 N   0  0  0  0  0  0  0  0  0  0  0  0
    8.1919   -1.9344    0.0000 N   0  0  0  0  0  0  0  0  0  0  0  0
    7.0513   -2.9085    0.0000 N   0  0  0  0  0  0  0  0  0  0  0  0
    7.1690   -4.4039    0.0000 C   0  0  0  0  0  0  0  0  0  0  0  0
    5.9328   -5.2535    0.0000 C   0  0  0  0  0  0  0  0  0  0  0  0
    6.0505   -6.7489    0.0000 C   0  0  0  0  0  0  0  0  0  0  0  0
    7.4044   -7.3947    0.0000 C   0  0  0  0  0  0  0  0  0  0  0  0
    7.5220   -8.8900    0.0000 O   0  0  0  0  0  0  0  0  0  0  0  0
    8.6405   -6.5451    0.0000 C   0  0  0  0  0  0  0  0  0  0  0  0
    8.5229   -5.0497    0.0000 C   0  0  0  0  0  0  0  0  0  0  0  0
    0.7500   -1.2990    0.0000 C   0  0  0  0  0  0  0  0  0  0  0  0
    1.5000    0.0000    0.0000 C   0  0  0  0  0  0  0  0  0  0  0  0
    0.7500    1.2990    0.0000 C   0  0  0  0  0  0  0  0  0  0  0  0
   -0.7500    1.2990    0.0000 C   0  0  0  0  0  0  0  0  0  0  0  0
   -1.5000    0.0000    0.0000 C   0  0  0  0  0  0  0  0  0  0  0  0
   -0.7500   -1.2990    0.0000 C   0  0  0  0  0  0  0  0  0  0  0  0
   -1.8107   -2.3597    0.0000 C   0  0  0  0  0  0  0  0  0  0  0  0
   -3.1097   -1.6097    0.0000 C   0  0  0  0  0  0  0  0  0  0  0  0
   -4.4087   -2.3597    0.0000 C   0  0  0  0  0  0  0  0  0  0  0  0
   -4.4087   -3.8597    0.0000 C   0  0  0  0  0  0  0  0  0  0  0  0
   -3.1097   -4.6097    0.0000 C   0  0  0  0  0  0  0  0  0  0  0  0
   -1.8107   -3.8597    0.0000 C   0  0  0  0  0  0  0  0  0  0  0  0
  1  2  1  0
  2  3  1  0
  3  4  1  0
  4  5  1  0
  5  6  1  0
  6  7  2  0
  6  8  1  0
  8  9  1  0
  9 10  2  0
 10 11  1  0
 11 12  2  0
 12 13  1  0
 13 14  1  0
 14 15  2  0
 15 16  1  0
 16 17  2  0
 17 18  1  0
 17 19  1  0
 19 20  2  0
  5 21  1  0
 21 22  2  0
 22 23  1  0
 23 24  2  0
 24 25  1  0
 25 26  2  0
 26 27  1  0
 27 28  2  0
 28 29  1  0
 29 30  2  0
 30 31  1  0
 31 32  2  0
 32  2  1  0
 13  9  1  0
 20 14  1  0
 26 21  1  0
 32 27  1  0
M  END
>  <Title>  (510) 
idAARRgen14

$$$$

     RDKit          2D

  8  8  0  0  0  0  0  0  0  0999 V2000
    3.7500   -1.2990    0.0000 C   0  0  0  0  0  0  0  0  0  0  0  0
    3.0000    0.0000    0.0000 N   0  0  0  0  0  0  0  0  0  0  0  0
    1.5000    0.0000    0.0000 C   0  0  0  0  0  0  0  0  0  0  0  0
    0.7500   -1.2990    0.0000 C   0  0  0  0  0  0  0  0  0  0  0  0
   -0.7500   -1.2990    0.0000 C   0  0  0  0  0  0  0  0  0  0  0  0
   -1.5000    0.0000    0.0000 C   0  0  0  0  0  0  0  0  0  0  0  0
   -0.7500    1.2990    0.0000 N   0  0  0  0  0  0  0  0  0  0  0  0
    0.7500    1.2990    0.0000 C   0  0  0  0  0  0  0  0  0  0  0  0
  1  2  1  0
  2  3  1  0
  3  4  2  0
  4  5  1  0
  5  6  2  0
  6  7  1  0
  7  8  2  0
  8  3  1  0
M  END
>  <Title>  (511) 
idAARSgen14

$$$$

     RDKit          2D

 27 30  0  0  0  0  0  0  0  0999 V2000
   -1.3240   -6.3062    0.0000 C   0  0  0  0  0  0  0  0  0  0  0  0
   -0.7500   -4.9204    0.0000 C   0  0  0  0  0  0  0  0  0  0  0  0
    0.7500   -4.9204    0.0000 C   0  0  0  0  0  0  0  0  0  0  0  0
    1.8107   -3.8597    0.0000 C   0  0  0  0  0  0  0  0  0  0  0  0
    1.8107   -2.3597    0.0000 C   0  0  0  0  0  0  0  0  0  0  0  0
    3.1965   -1.7857    0.0000 N   0  0  0  0  0  0  0  0  0  0  0  0
    4.3865   -2.6988    0.0000 C   0  0  0  0  0  0  0  0  0  0  0  0
    4.1907   -4.1860    0.0000 O   0  0  0  0  0  0  0  0  0  0  0  0
    5.7723   -2.1248    0.0000 N   0  0  0  0  0  0  0  0  0  0  0  0
    6.9624   -3.0379    0.0000 C   0  0  0  0  0  0  0  0  0  0  0  0
    6.7666   -4.5251    0.0000 N   0  0  0  0  0  0  0  0  0  0  0  0
    7.9566   -5.4382    0.0000 N   0  0  0  0  0  0  0  0  0  0  0  0
    9.3424   -4.8642    0.0000 N   0  0  0  0  0  0  0  0  0  0  0  0
    9.5382   -3.3770    0.0000 N   0  0  0  0  0  0  0  0  0  0  0  0
    8.3482   -2.4639    0.0000 N   0  0  0  0  0  0  0  0  0  0  0  0
    0.7500   -1.2990    0.0000 C   0  0  0  0  0  0  0  0  0  0  0  0
    1.5000    0.0000    0.0000 C   0  0  0  0  0  0  0  0  0  0  0  0
    0.7500    1.2990    0.0000 C   0  0  0  0  0  0  0  0  0  0  0  0
   -0.7500    1.2990    0.0000 C   0  0  0  0  0  0  0  0  0  0  0  0
   -1.5000    0.0000    0.0000 C   0  0  0  0  0  0  0  0  0  0  0  0
   -0.7500   -1.2990    0.0000 C   0  0  0  0  0  0  0  0  0  0  0  0
   -1.8107   -2.3597    0.0000 C   0  0  0  0  0  0  0  0  0  0  0  0
   -3.1097   -1.6097    0.0000 C   0  0  0  0  0  0  0  0  0  0  0  0
   -4.4087   -2.3597    0.0000 C   0  0  0  0  0  0  0  0  0  0  0  0
   -4.4087   -3.8597    0.0000 C   0  0  0  0  0  0  0  0  0  0  0  0
   -3.1097   -4.6097    0.0000 C   0  0  0  0  0  0  0  0  0  0  0  0
   -1.8107   -3.8597    0.0000 C   0  0  0  0  0  0  0  0  0  0  0  0
  1  2  1  0
  2  3  2  0
  3  4  1  0
  4  5  2  0
  5  6  1  0
  6  7  1  0
  7  8  2  0
  7  9  1  0
  9 10  1  0
 10 11  2  0
 11 12  1  0
 12 13  2  0
 13 14  1  0
 14 15  2  0
  5 16  1  0
 16 17  2  0
 17 18  1  0
 18 19  2  0
 19 20  1  0
 20 21  2  0
 21 22  1  0
 22 23  2  0
 23 24  1  0
 24 25  2  0
 25 26  1  0
 26 27  2  0
 27  2  1  0
 15 10  1  0
 21 16  1  0
 27 22  1  0
M  END
>  <Title>  (512) 
idAARTgen14

$$$$

     RDKit          2D

  8  7  0  0  0  0  0  0  0  0999 V2000
    0.0000    0.0000    0.0000 C   0  0  0  0  0  0  0  0  0  0  0  0
    1.2990    0.7500    0.0000 C   0  0  0  0  0  0  0  0  0  0  0  0
    2.5981   -0.0000    0.0000 C   0  0  0  0  0  0  0  0  0  0  0  0
    3.8971    0.7500    0.0000 C   0  0  0  0  0  0  0  0  0  0  0  0
    2.5981   -1.5000    0.0000 O   0  0  0  0  0  0  0  0  0  0  0  0
    3.8971   -2.2500    0.0000 C   0  0  0  0  0  0  0  0  0  0  0  0
    3.8971   -3.7500    0.0000 C   0  0  0  0  0  0  0  0  0  0  0  0
    5.1962   -1.5000    0.0000 C   0  0  0  0  0  0  0  0  0  0  0  0
  1  2  1  0
  2  3  1  0
  3  4  1  0
  3  5  1  0
  5  6  1  0
  6  7  1  0
  6  8  1  0
M  END
>  <Title>  (513) 
idAARUgen14

$$$$

     RDKit          2D

 41 46  0  0  0  0  0  0  0  0999 V2000
   -3.1476   -2.1380    0.0000 C   0  0  0  0  0  0  0  0  0  0  0  0
   -1.6852   -2.4718    0.0000 C   0  0  0  0  0  0  0  0  0  0  0  0
   -1.3515   -3.9342    0.0000 C   0  0  0  0  0  0  0  0  0  0  0  0
   -0.0000   -4.5850    0.0000 C   0  0  0  0  0  0  0  0  0  0  0  0
    1.3515   -3.9342    0.0000 C   0  0  0  0  0  0  0  0  0  0  0  0
    1.6852   -2.4718    0.0000 C   0  0  0  0  0  0  0  0  0  0  0  0
    3.1476   -2.1380    0.0000 C   0  0  0  0  0  0  0  0  0  0  0  0
    3.5898   -0.7046    0.0000 O   0  0  0  0  0  0  0  0  0  0  0  0
    4.1679   -3.2376    0.0000 N   0  0  0  0  0  0  0  0  0  0  0  0
    5.6303   -2.9038    0.0000 C   0  0  0  0  0  0  0  0  0  0  0  0
    6.2198   -1.5245    0.0000 N   0  0  0  0  0  0  0  0  0  0  0  0
    7.7138   -1.6590    0.0000 N   0  0  0  0  0  0  0  0  0  0  0  0
    8.0476   -3.1214    0.0000 N   0  0  0  0  0  0  0  0  0  0  0  0
    6.7599   -3.8907    0.0000 N   0  0  0  0  0  0  0  0  0  0  0  0
    6.6254   -5.3847    0.0000 N   0  0  0  0  0  0  0  0  0  0  0  0
    5.2644   -6.0152    0.0000 C   0  0  0  0  0  0  0  0  0  0  0  0
    5.1299   -7.5092    0.0000 N   0  0  0  0  0  0  0  0  0  0  0  0
    6.3565   -8.3726    0.0000 N   0  0  0  0  0  0  0  0  0  0  0  0
    7.7175   -7.7421    0.0000 N   0  0  0  0  0  0  0  0  0  0  0  0
    7.8520   -6.2481    0.0000 N   0  0  0  0  0  0  0  0  0  0  0  0
    9.2130   -5.6176    0.0000 N   0  0  0  0  0  0  0  0  0  0  0  0
    9.5029   -4.1458    0.0000 C   0  0  0  0  0  0  0  0  0  0  0  0
   10.9922   -3.9667    0.0000 C   0  0  0  0  0  0  0  0  0  0  0  0
   11.6227   -5.3278    0.0000 N   0  0  0  0  0  0  0  0  0  0  0  0
   13.0945   -5.6177    0.0000 C   0  0  0  0  0  0  0  0  0  0  0  0
   14.0814   -4.4881    0.0000 O   0  0  0  0  0  0  0  0  0  0  0  0
   13.5793   -7.0372    0.0000 N   0  0  0  0  0  0  0  0  0  0  0  0
   15.0510   -7.3270    0.0000 C   0  0  0  0  0  0  0  0  0  0  0  0
   15.5358   -8.7465    0.0000 N   0  0  0  0  0  0  0  0  0  0  0  0
   17.0075   -9.0364    0.0000 N   0  0  0  0  0  0  0  0  0  0  0  0
   17.9944   -7.9068    0.0000 N   0  0  0  0  0  0  0  0  0  0  0  0
   17.5096   -6.4873    0.0000 N   0  0  0  0  0  0  0  0  0  0  0  0
   16.0379   -6.1974    0.0000 N   0  0  0  0  0  0  0  0  0  0  0  0
   10.5232   -6.3480    0.0000 C   0  0  0  0  0  0  0  0  0  0  0  0
   10.7022   -7.8373    0.0000 O   0  0  0  0  0  0  0  0  0  0  0  0
    0.7500   -1.2990    0.0000 C   0  0  0  0  0  0  0  0  0  0  0  0
    1.5000    0.0000    0.0000 C   0  0  0  0  0  0  0  0  0  0  0  0
    0.7500    1.2990    0.0000 C   0  0  0  0  0  0  0  0  0  0  0  0
   -0.7500    1.2990    0.0000 C   0  0  0  0  0  0  0  0  0  0  0  0
   -1.5000    0.0000    0.0000 C   0  0  0  0  0  0  0  0  0  0  0  0
   -0.7500   -1.2990    0.0000 C   0  0  0  0  0  0  0  0  0  0  0  0
  1  2  1  0
  2  3  2  0
  3  4  1  0
  4  5  1  0
  5  6  2  0
  6  7  1  0
  7  8  2  0
  7  9  1  0
  9 10  1  0
 10 11  2  0
 11 12  1  0
 12 13  2  0
 13 14  1  0
 14 15  1  0
 15 16  1  0
 16 17  2  0
 17 18  1  0
 18 19  2  0
 19 20  1  0
 20 21  1  0
 21 22  1  0
 22 23  1  0
 23 24  1  0
 24 25  1  0
 25 26  2  0
 25 27  1  0
 27 28  1  0
 28 29  2  0
 29 30  1  0
 30 31  2  0
 31 32  1  0
 32 33  2  0
 24 34  1  0
 34 35  2  0
  6 36  1  0
 36 37  2  0
 37 38  1  0
 38 39  2  0
 39 40  1  0
 40 41  2  0
 41  2  1  0
 14 10  1  0
 20 15  1  0
 34 21  1  0
 41 36  1  0
 33 28  1  0
M  END
>  <Title>  (514) 
idAARVgen14

$$$$

     RDKit          2D

100101  0  0  0  0  0  0  0  0999 V2000
   11.1841   -4.4794    0.0000 C   0  0  0  0  0  0  0  0  0  0  0  0
   11.9812   -4.4706    0.0000 C   0  0  0  0  0  0  0  0  0  0  0  0
   12.0939   -5.9663    0.0000 C   0  0  0  0  0  0  0  0  0  0  0  0
   12.3970   -7.4354    0.0000 C   0  0  0  0  0  0  0  0  0  0  0  0
   12.8854   -8.8537    0.0000 C   0  0  0  0  0  0  0  0  0  0  0  0
   13.5512  -10.1978    0.0000 C   0  0  0  0  0  0  0  0  0  0  0  0
   14.3834  -11.4458    0.0000 C   0  0  0  0  0  0  0  0  0  0  0  0
   15.3683  -12.5771    0.0000 C   0  0  0  0  0  0  0  0  0  0  0  0
   16.4899  -13.5732    0.0000 C   0  0  0  0  0  0  0  0  0  0  0  0
   17.7296  -14.4176    0.0000 C   0  0  0  0  0  0  0  0  0  0  0  0
   19.0671  -15.0966    0.0000 C   0  0  0  0  0  0  0  0  0  0  0  0
   20.4805  -15.5990    0.0000 C   0  0  0  0  0  0  0  0  0  0  0  0
   21.9465  -15.9166    0.0000 C   0  0  0  0  0  0  0  0  0  0  0  0
   23.4410  -16.0440    0.0000 C   0  0  0  0  0  0  0  0  0  0  0  0
   24.9396  -15.9793    0.0000 C   0  0  0  0  0  0  0  0  0  0  0  0
   26.4177  -15.7235    0.0000 C   0  0  0  0  0  0  0  0  0  0  0  0
   27.8509  -15.2808    0.0000 C   0  0  0  0  0  0  0  0  0  0  0  0
   29.2156  -14.6584    0.0000 C   0  0  0  0  0  0  0  0  0  0  0  0
   30.4897  -13.8666    0.0000 C   0  0  0  0  0  0  0  0  0  0  0  0
   31.6520  -12.9185    0.0000 C   0  0  0  0  0  0  0  0  0  0  0  0
   32.6835  -11.8294    0.0000 C   0  0  0  0  0  0  0  0  0  0  0  0
   33.5672  -10.6174    0.0000 C   0  0  0  0  0  0  0  0  0  0  0  0
   34.2888   -9.3024    0.0000 C   0  0  0  0  0  0  0  0  0  0  0  0
   34.8362   -7.9058    0.0000 C   0  0  0  0  0  0  0  0  0  0  0  0
   35.2005   -6.4507    0.0000 C   0  0  0  0  0  0  0  0  0  0  0  0
   35.3758   -4.9610    0.0000 C   0  0  0  0  0  0  0  0  0  0  0  0
   35.3592   -3.4611    0.0000 C   0  0  0  0  0  0  0  0  0  0  0  0
   35.1509   -1.9756    0.0000 C   0  0  0  0  0  0  0  0  0  0  0  0
   34.7543   -0.5290    0.0000 C   0  0  0  0  0  0  0  0  0  0  0  0
   34.1760    0.8550    0.0000 C   0  0  0  0  0  0  0  0  0  0  0  0
   33.4255    2.1538    0.0000 C   0  0  0  0  0  0  0  0  0  0  0  0
   32.5151    3.3458    0.0000 C   0  0  0  0  0  0  0  0  0  0  0  0
   31.4596    4.4117    0.0000 C   0  0  0  0  0  0  0  0  0  0  0  0
   30.2766    5.3339    0.0000 C   0  0  0  0  0  0  0  0  0  0  0  0
   28.9853    6.0972    0.0000 C   0  0  0  0  0  0  0  0  0  0  0  0
   27.6070    6.6891    0.0000 C   0  0  0  0  0  0  0  0  0  0  0  0
   26.1644    7.0999    0.0000 C   0  0  0  0  0  0  0  0  0  0  0  0
   24.6811    7.3229    0.0000 C   0  0  0  0  0  0  0  0  0  0  0  0
   23.1814    7.3543    0.0000 C   0  0  0  0  0  0  0  0  0  0  0  0
   21.6900    7.1937    0.0000 C   0  0  0  0  0  0  0  0  0  0  0  0
   20.2314    6.8437    0.0000 C   0  0  0  0  0  0  0  0  0  0  0  0
   18.8295    6.3101    0.0000 C   0  0  0  0  0  0  0  0  0  0  0  0
   17.5074    5.6016    0.0000 C   0  0  0  0  0  0  0  0  0  0  0  0
   16.2868    4.7298    0.0000 C   0  0  0  0  0  0  0  0  0  0  0  0
   15.1876    3.7091    0.0000 C   0  0  0  0  0  0  0  0  0  0  0  0
   14.2280    2.5562    0.0000 C   0  0  0  0  0  0  0  0  0  0  0  0
   13.4237    1.2901    0.0000 C   0  0  0  0  0  0  0  0  0  0  0  0
   12.7879   -0.0685    0.0000 C   0  0  0  0  0  0  0  0  0  0  0  0
   12.3311   -1.4973    0.0000 C   0  0  0  0  0  0  0  0  0  0  0  0
   11.7216   -0.0000    0.0000 C   0  0  0  0  0  0  0  0  0  0  0  0
   11.6362    1.4129    0.0000 C   0  0  0  0  0  0  0  0  0  0  0  0
   11.3810    2.8052    0.0000 C   0  0  0  0  0  0  0  0  0  0  0  0
   10.9599    4.1566    0.0000 C   0  0  0  0  0  0  0  0  0  0  0  0
   10.3790    5.4473    0.0000 C   0  0  0  0  0  0  0  0  0  0  0  0
    9.6467    6.6587    0.0000 C   0  0  0  0  0  0  0  0  0  0  0  0
    8.7738    7.7729    0.0000 C   0  0  0  0  0  0  0  0  0  0  0  0
    7.7729    8.7738    0.0000 C   0  0  0  0  0  0  0  0  0  0  0  0
    6.6587    9.6467    0.0000 C   0  0  0  0  0  0  0  0  0  0  0  0
    5.4473   10.3790    0.0000 C   0  0  0  0  0  0  0  0  0  0  0  0
    4.1566   10.9599    0.0000 C   0  0  0  0  0  0  0  0  0  0  0  0
    2.8052   11.3810    0.0000 C   0  0  0  0  0  0  0  0  0  0  0  0
    1.4129   11.6362    0.0000 C   0  0  0  0  0  0  0  0  0  0  0  0
    0.0000   11.7216    0.0000 C   0  0  0  0  0  0  0  0  0  0  0  0
   -1.4129   11.6362    0.0000 C   0  0  0  0  0  0  0  0  0  0  0  0
   -2.8052   11.3810    0.0000 C   0  0  0  0  0  0  0  0  0  0  0  0
   -4.1566   10.9599    0.0000 C   0  0  0  0  0  0  0  0  0  0  0  0
   -5.4473   10.3790    0.0000 C   0  0  0  0  0  0  0  0  0  0  0  0
   -6.6587    9.6467    0.0000 C   0  0  0  0  0  0  0  0  0  0  0  0
   -7.7729    8.7738    0.0000 C   0  0  0  0  0  0  0  0  0  0  0  0
   -8.7738    7.7729    0.0000 C   0  0  0  0  0  0  0  0  0  0  0  0
   -9.6467    6.6587    0.0000 C   0  0  0  0  0  0  0  0  0  0  0  0
  -10.3790    5.4473    0.0000 C   0  0  0  0  0  0  0  0  0  0  0  0
  -10.9599    4.1566    0.0000 C   0  0  0  0  0  0  0  0  0  0  0  0
  -11.3810    2.8052    0.0000 C   0  0  0  0  0  0  0  0  0  0  0  0
  -11.6362    1.4129    0.0000 C   0  0  0  0  0  0  0  0  0  0  0  0
  -11.7216    0.0000    0.0000 C   0  0  0  0  0  0  0  0  0  0  0  0
  -11.6362   -1.4129    0.0000 C   0  0  0  0  0  0  0  0  0  0  0  0
  -11.3810   -2.8052    0.0000 C   0  0  0  0  0  0  0  0  0  0  0  0
  -10.9599   -4.1566    0.0000 C   0  0  0  0  0  0  0  0  0  0  0  0
  -10.3790   -5.4473    0.0000 C   0  0  0  0  0  0  0  0  0  0  0  0
   -9.6467   -6.6587    0.0000 C   0  0  0  0  0  0  0  0  0  0  0  0
   -8.7738   -7.7729    0.0000 C   0  0  0  0  0  0  0  0  0  0  0  0
   -7.7729   -8.7738    0.0000 C   0  0  0  0  0  0  0  0  0  0  0  0
   -6.6587   -9.6467    0.0000 C   0  0  0  0  0  0  0  0  0  0  0  0
   -5.4473  -10.3790    0.0000 C   0  0  0  0  0  0  0  0  0  0  0  0
   -4.1566  -10.9599    0.0000 C   0  0  0  0  0  0  0  0  0  0  0  0
   -2.8052  -11.3810    0.0000 C   0  0  0  0  0  0  0  0  0  0  0  0
   -1.4129  -11.6362    0.0000 C   0  0  0  0  0  0  0  0  0  0  0  0
   -0.0000  -11.7216    0.0000 C   0  0  0  0  0  0  0  0  0  0  0  0
    1.4129  -11.6362    0.0000 C   0  0  0  0  0  0  0  0  0  0  0  0
    2.8052  -11.3810    0.0000 C   0  0  0  0  0  0  0  0  0  0  0  0
    4.1566  -10.9599    0.0000 C   0  0  0  0  0  0  0  0  0  0  0  0
    5.4473  -10.3790    0.0000 C   0  0  0  0  0  0  0  0  0  0  0  0
    6.6587   -9.6467    0.0000 C   0  0  0  0  0  0  0  0  0  0  0  0
    7.7729   -8.7738    0.0000 C   0  0  0  0  0  0  0  0  0  0  0  0
    8.7738   -7.7729    0.0000 C   0  0  0  0  0  0  0  0  0  0  0  0
    9.6467   -6.6587    0.0000 C   0  0  0  0  0  0  0  0  0  0  0  0
   10.3790   -5.4473    0.0000 C   0  0  0  0  0  0  0  0  0  0  0  0
   10.9599   -4.1566    0.0000 C   0  0  0  0  0  0  0  0  0  0  0  0
   12.0607   -2.9727    0.0000 C   0  0  0  0  0  0  0  0  0  0  0  0
  1  2  1  0
  2  3  1  0
  3  4  1  0
  4  5  1  0
  5  6  1  0
  6  7  1  0
  7  8  2  0
  8  9  1  0
  9 10  1  0
 10 11  1  0
 11 12  1  0
 12 13  1  0
 13 14  1  0
 14 15  1  0
 15 16  1  0
 16 17  1  0
 17 18  1  0
 18 19  1  0
 19 20  1  0
 20 21  1  0
 21 22  1  0
 22 23  1  0
 23 24  1  0
 24 25  1  0
 25 26  1  0
 26 27  1  0
 27 28  1  0
 28 29  1  0
 29 30  1  0
 30 31  1  0
 31 32  1  0
 32 33  1  0
 33 34  1  0
 34 35  1  0
 35 36  1  0
 36 37  1  0
 37 38  1  0
 38 39  1  0
 39 40  1  0
 40 41  1  0
 41 42  1  0
 42 43  1  0
 43 44  1  0
 44 45  1  0
 45 46  1  0
 46 47  1  0
 47 48  1  0
 48 49  1  0
 49 50  1  0
 50 51  1  0
 51 52  1  0
 52 53  1  0
 53 54  1  0
 54 55  1  0
 55 56  1  0
 56 57  1  0
 57 58  1  0
 58 59  1  0
 59 60  1  0
 60 61  1  0
 61 62  1  0
 62 63  1  0
 63 64  1  0
 64 65  1  0
 65 66  1  0
 66 67  1  0
 67 68  1  0
 68 69  1  0
 69 70  1  0
 70 71  1  0
 71 72  1  0
 72 73  1  0
 73 74  1  0
 74 75  1  0
 75 76  1  0
 76 77  1  0
 77 78  1  0
 78 79  1  0
 79 80  2  0
 80 81  1  0
 81 82  2  0
 82 83  1  0
 83 84  2  0
 84 85  1  0
 85 86  2  0
 86 87  1  0
 87 88  2  0
 88 89  1  0
 89 90  2  0
 90 91  1  0
 91 92  2  0
 92 93  1  0
 93 94  2  0
 94 95  1  0
 95 96  2  0
 96 97  1  0
 97 98  2  0
 98 99  1  0
 99100  2  0
100  2  1  0
100 49  1  0
M  END
>  <Title>  (515) 
idAARWgen14

$$$$

     RDKit          2D

  7  6  0  0  0  0  0  0  0  0999 V2000
    0.0000    0.0000    0.0000 C   0  0  0  0  0  0  0  0  0  0  0  0
   -0.0000   -1.5000    0.0000 C   0  0  0  0  0  0  0  0  0  0  0  0
   -0.0000   -3.0000    0.0000 C   0  0  0  0  0  0  0  0  0  0  0  0
    1.2990   -3.7500    0.0000 C   0  0  0  0  0  0  0  0  0  0  0  0
    1.2990   -5.2500    0.0000 C   0  0  0  0  0  0  0  0  0  0  0  0
    2.5981   -6.0000    0.0000 O   0  0  0  0  0  0  0  0  0  0  0  0
   -0.0000   -6.0000    0.0000 F   0  0  0  0  0  0  0  0  0  0  0  0
  1  2  3  0
  2  3  1  0
  3  4  1  0
  4  5  1  0
  5  6  1  0
  5  7  1  0
M  END
>  <Title>  (516) 
idAARXgen14

$$$$

     RDKit          2D

 26 29  0  0  0  0  0  0  0  0999 V2000
   -3.1476   -2.1380    0.0000 C   0  0  0  0  0  0  0  0  0  0  0  0
   -1.6852   -2.4718    0.0000 C   0  0  0  0  0  0  0  0  0  0  0  0
   -1.3515   -3.9342    0.0000 C   0  0  0  0  0  0  0  0  0  0  0  0
   -0.0000   -4.5850    0.0000 C   0  0  0  0  0  0  0  0  0  0  0  0
    1.3515   -3.9342    0.0000 C   0  0  0  0  0  0  0  0  0  0  0  0
    1.6852   -2.4718    0.0000 C   0  0  0  0  0  0  0  0  0  0  0  0
    3.1476   -2.1380    0.0000 C   0  0  0  0  0  0  0  0  0  0  0  0
    3.5898   -0.7046    0.0000 O   0  0  0  0  0  0  0  0  0  0  0  0
    4.1679   -3.2376    0.0000 N   0  0  0  0  0  0  0  0  0  0  0  0
    5.6303   -2.9038    0.0000 C   0  0  0  0  0  0  0  0  0  0  0  0
    6.2198   -1.5245    0.0000 N   0  0  0  0  0  0  0  0  0  0  0  0
    7.7138   -1.6590    0.0000 N   0  0  0  0  0  0  0  0  0  0  0  0
    8.0476   -3.1214    0.0000 N   0  0  0  0  0  0  0  0  0  0  0  0
    6.7599   -3.8907    0.0000 N   0  0  0  0  0  0  0  0  0  0  0  0
    6.6254   -5.3847    0.0000 C   0  0  0  0  0  0  0  0  0  0  0  0
    5.2644   -6.0152    0.0000 C   0  0  0  0  0  0  0  0  0  0  0  0
    5.1299   -7.5092    0.0000 C   0  0  0  0  0  0  0  0  0  0  0  0
    6.3565   -8.3726    0.0000 C   0  0  0  0  0  0  0  0  0  0  0  0
    7.7175   -7.7421    0.0000 C   0  0  0  0  0  0  0  0  0  0  0  0
    7.8520   -6.2481    0.0000 C   0  0  0  0  0  0  0  0  0  0  0  0
    0.7500   -1.2990    0.0000 C   0  0  0  0  0  0  0  0  0  0  0  0
    1.5000    0.0000    0.0000 C   0  0  0  0  0  0  0  0  0  0  0  0
    0.7500    1.2990    0.0000 C   0  0  0  0  0  0  0  0  0  0  0  0
   -0.7500    1.2990    0.0000 C   0  0  0  0  0  0  0  0  0  0  0  0
   -1.5000    0.0000    0.0000 C   0  0  0  0  0  0  0  0  0  0  0  0
   -0.7500   -1.2990    0.0000 C   0  0  0  0  0  0  0  0  0  0  0  0
  1  2  1  0
  2  3  1  0
  3  4  1  0
  4  5  1  0
  5  6  1  0
  6  7  1  0
  7  8  2  0
  7  9  1  0
  9 10  1  0
 10 11  2  0
 11 12  1  0
 12 13  2  0
 13 14  1  0
 14 15  1  0
 15 16  2  0
 16 17  1  0
 17 18  2  0
 18 19  1  0
 19 20  2  0
  6 21  1  0
 21 22  2  0
 22 23  1  0
 23 24  2  0
 24 25  1  0
 25 26  2  0
 26  2  1  0
 14 10  1  0
 20 15  1  0
 26 21  1  0
M  END
>  <Title>  (517) 
idAARYgen14

$$$$

     RDKit          2D

 10  9  0  0  0  0  0  0  0  0999 V2000
    0.0000    0.0000    0.0000 C   0  0  0  0  0  0  0  0  0  0  0  0
    1.2990    0.7500    0.0000 C   0  0  0  0  0  0  0  0  0  0  0  0
    2.5981   -0.0000    0.0000 C   0  0  0  0  0  0  0  0  0  0  0  0
    3.8971    0.7500    0.0000 N   0  0  0  0  0  0  0  0  0  0  0  0
    5.1962   -0.0000    0.0000 C   0  0  0  0  0  0  0  0  0  0  0  0
    5.1962   -1.5000    0.0000 O   0  0  0  0  0  0  0  0  0  0  0  0
    6.4952    0.7500    0.0000 C   0  0  0  0  0  0  0  0  0  0  0  0
    7.7942   -0.0000    0.0000 C   0  0  0  0  0  0  0  0  0  0  0  0
    9.0933    0.7500    0.0000 C   0  0  0  0  0  0  0  0  0  0  0  0
    7.7942   -1.5000    0.0000 C   0  0  0  0  0  0  0  0  0  0  0  0
  1  2  2  0
  2  3  1  0
  3  4  1  0
  4  5  1  0
  5  6  2  0
  5  7  1  0
  7  8  1  0
  8  9  1  0
  8 10  1  0
M  END
>  <Title>  (518) 
idAARZgen14

$$$$

     RDKit          2D

 28 31  0  0  0  0  0  0  0  0999 V2000
   -4.5000   -2.5981    0.0000 N   0  0  0  0  0  0  0  0  0  0  0  0
   -3.0000   -2.5981    0.0000 C   0  0  0  0  0  0  0  0  0  0  0  0
   -1.5000   -2.5981    0.0000 C   0  0  0  0  0  0  0  0  0  0  0  0
   -0.7500   -3.8971    0.0000 C   0  0  0  0  0  0  0  0  0  0  0  0
    0.7500   -3.8971    0.0000 C   0  0  0  0  0  0  0  0  0  0  0  0
    1.5000   -2.5981    0.0000 C   0  0  0  0  0  0  0  0  0  0  0  0
    3.0000   -2.5981    0.0000 C   0  0  0  0  0  0  0  0  0  0  0  0
    3.7500   -3.8971    0.0000 N   0  0  0  0  0  0  0  0  0  0  0  0
    5.2418   -4.0539    0.0000 C   0  0  0  0  0  0  0  0  0  0  0  0
    5.5537   -5.5211    0.0000 C   0  0  0  0  0  0  0  0  0  0  0  0
    4.2546   -6.2711    0.0000 C   0  0  0  0  0  0  0  0  0  0  0  0
    4.0978   -7.7629    0.0000 C   0  0  0  0  0  0  0  0  0  0  0  0
    5.3113   -8.6446    0.0000 O   0  0  0  0  0  0  0  0  0  0  0  0
    2.7275   -8.3730    0.0000 N   0  0  0  0  0  0  0  0  0  0  0  0
    2.5707   -9.8648    0.0000 C   0  0  0  0  0  0  0  0  0  0  0  0
    1.2004  -10.4749    0.0000 N   0  0  0  0  0  0  0  0  0  0  0  0
    1.0436  -11.9667    0.0000 N   0  0  0  0  0  0  0  0  0  0  0  0
    2.2571  -12.8484    0.0000 N   0  0  0  0  0  0  0  0  0  0  0  0
    3.6274  -12.2383    0.0000 N   0  0  0  0  0  0  0  0  0  0  0  0
    3.7842  -10.7465    0.0000 N   0  0  0  0  0  0  0  0  0  0  0  0
    3.1399   -5.2674    0.0000 C   0  0  0  0  0  0  0  0  0  0  0  0
    1.6727   -5.5793    0.0000 O   0  0  0  0  0  0  0  0  0  0  0  0
    0.7500   -1.2990    0.0000 C   0  0  0  0  0  0  0  0  0  0  0  0
    1.5000    0.0000    0.0000 C   0  0  0  0  0  0  0  0  0  0  0  0
    0.7500    1.2990    0.0000 C   0  0  0  0  0  0  0  0  0  0  0  0
   -0.7500    1.2990    0.0000 C   0  0  0  0  0  0  0  0  0  0  0  0
   -1.5000    0.0000    0.0000 C   0  0  0  0  0  0  0  0  0  0  0  0
   -0.7500   -1.2990    0.0000 C   0  0  0  0  0  0  0  0  0  0  0  0
  1  2  3  0
  2  3  1  0
  3  4  2  0
  4  5  1  0
  5  6  1  0
  6  7  1  0
  7  8  1  0
  8  9  1  0
  9 10  1  0
 10 11  2  0
 11 12  1  0
 12 13  2  0
 12 14  1  0
 14 15  1  0
 15 16  2  0
 16 17  1  0
 17 18  2  0
 18 19  1  0
 19 20  2  0
 11 21  1  0
 21 22  2  0
  6 23  1  0
 23 24  2  0
 24 25  1  0
 25 26  2  0
 26 27  1  0
 27 28  2  0
 28  3  1  0
 21  8  1  0
 28 23  1  0
 20 15  1  0
M  END
>  <Title>  (519) 
idAASAgen14

$$$$

     RDKit          2D

 14 14  0  0  0  0  0  0  0  0999 V2000
    9.7500   -3.8971    0.0000 C   0  0  0  0  0  0  0  0  0  0  0  0
    8.2500   -3.8971    0.0000 C   0  0  0  0  0  0  0  0  0  0  0  0
    7.5000   -2.5981    0.0000 C   0  0  0  0  0  0  0  0  0  0  0  0
    6.0000   -2.5981    0.0000 N   0  0  0  0  0  0  0  0  0  0  0  0
    5.2500   -1.2990    0.0000 C   0  0  0  0  0  0  0  0  0  0  0  0
    6.0000    0.0000    0.0000 O   0  0  0  0  0  0  0  0  0  0  0  0
    3.7500   -1.2990    0.0000 C   0  0  0  0  0  0  0  0  0  0  0  0
    3.0000    0.0000    0.0000 C   0  0  0  0  0  0  0  0  0  0  0  0
    1.5000    0.0000    0.0000 C   0  0  0  0  0  0  0  0  0  0  0  0
    0.7500   -1.2990    0.0000 C   0  0  0  0  0  0  0  0  0  0  0  0
   -0.7500   -1.2990    0.0000 C   0  0  0  0  0  0  0  0  0  0  0  0
   -1.5000    0.0000    0.0000 C   0  0  0  0  0  0  0  0  0  0  0  0
   -0.7500    1.2990    0.0000 N   0  0  0  0  0  0  0  0  0  0  0  0
    0.7500    1.2990    0.0000 C   0  0  0  0  0  0  0  0  0  0  0  0
  1  2  1  0
  2  3  1  0
  3  4  1  0
  4  5  1  0
  5  6  2  0
  5  7  1  0
  7  8  1  0
  8  9  1  0
  9 10  2  0
 10 11  1  0
 11 12  2  0
 12 13  1  0
 13 14  2  0
 14  9  1  0
M  END
>  <Title>  (520) 
idAASBgen14

$$$$

     RDKit          2D

 33 37  0  0  0  0  0  0  0  0999 V2000
   -2.6401   -3.1891    0.0000 C   0  0  0  0  0  0  0  0  0  0  0  0
   -1.2135   -2.7256    0.0000 C   0  0  0  0  0  0  0  0  0  0  0  0
   -0.0000   -3.6073    0.0000 C   0  0  0  0  0  0  0  0  0  0  0  0
    1.2135   -2.7256    0.0000 C   0  0  0  0  0  0  0  0  0  0  0  0
    2.6401   -3.1891    0.0000 C   0  0  0  0  0  0  0  0  0  0  0  0
    3.7548   -2.1855    0.0000 O   0  0  0  0  0  0  0  0  0  0  0  0
    2.9520   -4.6564    0.0000 N   0  0  0  0  0  0  0  0  0  0  0  0
    4.3786   -5.1199    0.0000 C   0  0  0  0  0  0  0  0  0  0  0  0
    5.5921   -4.2382    0.0000 N   0  0  0  0  0  0  0  0  0  0  0  0
    6.8056   -5.1199    0.0000 N   0  0  0  0  0  0  0  0  0  0  0  0
    6.3421   -6.5465    0.0000 N   0  0  0  0  0  0  0  0  0  0  0  0
    4.8421   -6.5465    0.0000 N   0  0  0  0  0  0  0  0  0  0  0  0
    3.9604   -7.7600    0.0000 C   0  0  0  0  0  0  0  0  0  0  0  0
    4.4239   -9.1866    0.0000 C   0  0  0  0  0  0  0  0  0  0  0  0
    3.2104  -10.0683    0.0000 C   0  0  0  0  0  0  0  0  0  0  0  0
    1.9969   -9.1866    0.0000 C   0  0  0  0  0  0  0  0  0  0  0  0
    0.5703   -9.6501    0.0000 C   0  0  0  0  0  0  0  0  0  0  0  0
    0.2584  -11.1173    0.0000 O   0  0  0  0  0  0  0  0  0  0  0  0
   -0.5444   -8.6464    0.0000 N   0  0  0  0  0  0  0  0  0  0  0  0
   -1.9710   -9.1099    0.0000 C   0  0  0  0  0  0  0  0  0  0  0  0
   -3.0857   -8.1062    0.0000 N   0  0  0  0  0  0  0  0  0  0  0  0
   -4.5123   -8.5698    0.0000 N   0  0  0  0  0  0  0  0  0  0  0  0
   -4.8242  -10.0370    0.0000 N   0  0  0  0  0  0  0  0  0  0  0  0
   -3.7095  -11.0407    0.0000 N   0  0  0  0  0  0  0  0  0  0  0  0
   -2.2829  -10.5772    0.0000 N   0  0  0  0  0  0  0  0  0  0  0  0
    2.4604   -7.7600    0.0000 C   0  0  0  0  0  0  0  0  0  0  0  0
    1.5787   -6.5465    0.0000 O   0  0  0  0  0  0  0  0  0  0  0  0
    0.7500   -1.2990    0.0000 C   0  0  0  0  0  0  0  0  0  0  0  0
    1.5000    0.0000    0.0000 C   0  0  0  0  0  0  0  0  0  0  0  0
    0.7500    1.2990    0.0000 C   0  0  0  0  0  0  0  0  0  0  0  0
   -0.7500    1.2990    0.0000 C   0  0  0  0  0  0  0  0  0  0  0  0
   -1.5000    0.0000    0.0000 C   0  0  0  0  0  0  0  0  0  0  0  0
   -0.7500   -1.2990    0.0000 C   0  0  0  0  0  0  0  0  0  0  0  0
  1  2  1  0
  2  3  2  0
  3  4  1  0
  4  5  1  0
  5  6  2  0
  5  7  1  0
  7  8  1  0
  8  9  2  0
  9 10  1  0
 10 11  2  0
 11 12  1  0
 12 13  1  0
 13 14  2  0
 14 15  1  0
 15 16  2  0
 16 17  1  0
 17 18  2  0
 17 19  1  0
 19 20  1  0
 20 21  2  0
 21 22  1  0
 22 23  2  0
 23 24  1  0
 24 25  2  0
 16 26  1  0
 26 27  2  0
  4 28  1  0
 28 29  2  0
 29 30  1  0
 30 31  2  0
 31 32  1  0
 32 33  2  0
 33  2  1  0
 12  8  1  0
 26 13  1  0
 33 28  1  0
 25 20  1  0
M  END
>  <Title>  (521) 
idAASCgen14

$$$$

     RDKit          2D

  6  5  0  0  0  0  0  0  0  0999 V2000
    0.0000    0.0000    0.0000 C   0  0  0  0  0  0  0  0  0  0  0  0
    1.2990    0.7500    0.0000 C   0  0  0  0  0  0  0  0  0  0  0  0
    2.5981   -0.0000    0.0000 C   0  0  0  0  0  0  0  0  0  0  0  0
    2.5981   -1.5000    0.0000 O   0  0  0  0  0  0  0  0  0  0  0  0
    3.8971    0.7500    0.0000 C   0  0  0  0  0  0  0  0  0  0  0  0
    5.1962   -0.0000    0.0000 C   0  0  0  0  0  0  0  0  0  0  0  0
  1  2  1  0
  2  3  1  0
  3  4  1  0
  3  5  1  0
  5  6  1  0
M  END
>  <Title>  (522) 
idAASDgen14

$$$$

     RDKit          2D

 41 46  0  0  0  0  0  0  0  0999 V2000
   -2.3737   -6.1885    0.0000 C   0  0  0  0  0  0  0  0  0  0  0  0
   -1.4095   -5.0395    0.0000 C   0  0  0  0  0  0  0  0  0  0  0  0
   -0.0000   -5.5525    0.0000 C   0  0  0  0  0  0  0  0  0  0  0  0
    1.4095   -5.0395    0.0000 C   0  0  0  0  0  0  0  0  0  0  0  0
    2.1595   -3.7404    0.0000 C   0  0  0  0  0  0  0  0  0  0  0  0
    1.8991   -2.2632    0.0000 C   0  0  0  0  0  0  0  0  0  0  0  0
    3.1981   -1.5132    0.0000 C   0  0  0  0  0  0  0  0  0  0  0  0
    3.1981   -0.0132    0.0000 O   0  0  0  0  0  0  0  0  0  0  0  0
    4.4971   -2.2632    0.0000 N   0  0  0  0  0  0  0  0  0  0  0  0
    5.7962   -1.5132    0.0000 C   0  0  0  0  0  0  0  0  0  0  0  0
    5.9530   -0.0214    0.0000 N   0  0  0  0  0  0  0  0  0  0  0  0
    7.4202    0.2904    0.0000 N   0  0  0  0  0  0  0  0  0  0  0  0
    8.1702   -1.0086    0.0000 N   0  0  0  0  0  0  0  0  0  0  0  0
    7.1665   -2.1233    0.0000 N   0  0  0  0  0  0  0  0  0  0  0  0
    7.4784   -3.5905    0.0000 N   0  0  0  0  0  0  0  0  0  0  0  0
    8.8487   -4.2007    0.0000 C   0  0  0  0  0  0  0  0  0  0  0  0
    8.6919   -5.6924    0.0000 C   0  0  0  0  0  0  0  0  0  0  0  0
    7.2247   -6.0043    0.0000 N   0  0  0  0  0  0  0  0  0  0  0  0
    6.6146   -7.3746    0.0000 C   0  0  0  0  0  0  0  0  0  0  0  0
    7.4962   -8.5881    0.0000 O   0  0  0  0  0  0  0  0  0  0  0  0
    5.1228   -7.5314    0.0000 N   0  0  0  0  0  0  0  0  0  0  0  0
    4.5127   -8.9017    0.0000 C   0  0  0  0  0  0  0  0  0  0  0  0
    3.0209   -9.0585    0.0000 N   0  0  0  0  0  0  0  0  0  0  0  0
    2.4108  -10.4288    0.0000 N   0  0  0  0  0  0  0  0  0  0  0  0
    3.2925  -11.6424    0.0000 N   0  0  0  0  0  0  0  0  0  0  0  0
    4.7843  -11.4856    0.0000 N   0  0  0  0  0  0  0  0  0  0  0  0
    5.3944  -10.1153    0.0000 N   0  0  0  0  0  0  0  0  0  0  0  0
    6.4747   -4.7053    0.0000 C   0  0  0  0  0  0  0  0  0  0  0  0
    4.9829   -4.5485    0.0000 O   0  0  0  0  0  0  0  0  0  0  0  0
    0.7500   -1.2990    0.0000 C   0  0  0  0  0  0  0  0  0  0  0  0
    1.5000    0.0000    0.0000 C   0  0  0  0  0  0  0  0  0  0  0  0
    0.7500    1.2990    0.0000 C   0  0  0  0  0  0  0  0  0  0  0  0
   -0.7500    1.2990    0.0000 C   0  0  0  0  0  0  0  0  0  0  0  0
   -1.5000    0.0000    0.0000 C   0  0  0  0  0  0  0  0  0  0  0  0
   -0.7500   -1.2990    0.0000 C   0  0  0  0  0  0  0  0  0  0  0  0
   -1.8991   -2.2632    0.0000 C   0  0  0  0  0  0  0  0  0  0  0  0
   -3.0481   -1.2990    0.0000 C   0  0  0  0  0  0  0  0  0  0  0  0
   -4.4577   -1.8121    0.0000 C   0  0  0  0  0  0  0  0  0  0  0  0
   -4.7181   -3.2893    0.0000 C   0  0  0  0  0  0  0  0  0  0  0  0
   -3.5691   -4.2535    0.0000 C   0  0  0  0  0  0  0  0  0  0  0  0
   -2.1595   -3.7404    0.0000 C   0  0  0  0  0  0  0  0  0  0  0  0
  1  2  1  0
  2  3  1  0
  3  4  1  0
  4  5  1  0
  5  6  1  0
  6  7  1  0
  7  8  2  0
  7  9  1  0
  9 10  1  0
 10 11  2  0
 11 12  1  0
 12 13  2  0
 13 14  1  0
 14 15  1  0
 15 16  1  0
 16 17  1  0
 17 18  1  0
 18 19  1  0
 19 20  2  0
 19 21  1  0
 21 22  1  0
 22 23  2  0
 23 24  1  0
 24 25  2  0
 25 26  1  0
 26 27  2  0
 18 28  1  0
 28 29  2  0
  6 30  1  0
 30 31  2  0
 31 32  1  0
 32 33  2  0
 33 34  1  0
 34 35  2  0
 35 36  1  0
 36 37  2  0
 37 38  1  0
 38 39  2  0
 39 40  1  0
 40 41  2  0
 41  2  1  0
 14 10  1  0
 28 15  1  0
 35 30  1  0
 41 36  1  0
 27 22  1  0
M  END
>  <Title>  (523) 
idAASEgen14

$$$$

     RDKit          2D

  7  6  0  0  0  0  0  0  0  0999 V2000
    0.0000    0.0000    0.0000 C   0  0  0  0  0  0  0  0  0  0  0  0
    1.2990    0.7500    0.0000 C   0  0  0  0  0  0  0  0  0  0  0  0
    2.5981   -0.0000    0.0000 C   0  0  0  0  0  0  0  0  0  0  0  0
    3.8971    0.7500    0.0000 C   0  0  0  0  0  0  0  0  0  0  0  0
    5.1962   -0.0000    0.0000 C   0  0  0  0  0  0  0  0  0  0  0  0
    6.4952    0.7500    0.0000 C   0  0  0  0  0  0  0  0  0  0  0  0
    7.7942    1.5000    0.0000 N   0  0  0  0  0  0  0  0  0  0  0  0
  1  2  1  0
  2  3  1  0
  3  4  1  0
  4  5  1  0
  5  6  1  0
  6  7  3  0
M  END
>  <Title>  (524) 
idAASFgen14

$$$$

     RDKit          2D

 42 47  0  0  0  0  0  0  0  0999 V2000
   -3.1771   -5.9156    0.0000 C   0  0  0  0  0  0  0  0  0  0  0  0
   -1.9635   -5.0339    0.0000 C   0  0  0  0  0  0  0  0  0  0  0  0
   -0.7500   -5.9156    0.0000 C   0  0  0  0  0  0  0  0  0  0  0  0
    0.7500   -5.9156    0.0000 C   0  0  0  0  0  0  0  0  0  0  0  0
    1.9635   -5.0339    0.0000 C   0  0  0  0  0  0  0  0  0  0  0  0
    2.4271   -3.6073    0.0000 C   0  0  0  0  0  0  0  0  0  0  0  0
    1.9635   -2.1807    0.0000 C   0  0  0  0  0  0  0  0  0  0  0  0
    3.1771   -1.2990    0.0000 C   0  0  0  0  0  0  0  0  0  0  0  0
    3.0203    0.1927    0.0000 O   0  0  0  0  0  0  0  0  0  0  0  0
    4.5474   -1.9091    0.0000 N   0  0  0  0  0  0  0  0  0  0  0  0
    5.7609   -1.0275    0.0000 C   0  0  0  0  0  0  0  0  0  0  0  0
    5.7609    0.4725    0.0000 N   0  0  0  0  0  0  0  0  0  0  0  0
    7.1875    0.9361    0.0000 N   0  0  0  0  0  0  0  0  0  0  0  0
    8.0692   -0.2775    0.0000 N   0  0  0  0  0  0  0  0  0  0  0  0
    7.1875   -1.4910    0.0000 N   0  0  0  0  0  0  0  0  0  0  0  0
    7.6510   -2.9176    0.0000 C   0  0  0  0  0  0  0  0  0  0  0  0
    9.0776   -3.3811    0.0000 C   0  0  0  0  0  0  0  0  0  0  0  0
    9.0776   -4.8811    0.0000 C   0  0  0  0  0  0  0  0  0  0  0  0
    7.6510   -5.3446    0.0000 C   0  0  0  0  0  0  0  0  0  0  0  0
    7.1875   -6.7712    0.0000 C   0  0  0  0  0  0  0  0  0  0  0  0
    8.1912   -7.8859    0.0000 O   0  0  0  0  0  0  0  0  0  0  0  0
    5.7203   -7.0831    0.0000 N   0  0  0  0  0  0  0  0  0  0  0  0
    5.2567   -8.5097    0.0000 C   0  0  0  0  0  0  0  0  0  0  0  0
    3.7895   -8.8215    0.0000 N   0  0  0  0  0  0  0  0  0  0  0  0
    3.3260  -10.2481    0.0000 N   0  0  0  0  0  0  0  0  0  0  0  0
    4.3297  -11.3628    0.0000 N   0  0  0  0  0  0  0  0  0  0  0  0
    5.7969  -11.0510    0.0000 N   0  0  0  0  0  0  0  0  0  0  0  0
    6.2604   -9.6244    0.0000 N   0  0  0  0  0  0  0  0  0  0  0  0
    6.7693   -4.1311    0.0000 C   0  0  0  0  0  0  0  0  0  0  0  0
    5.2693   -4.1311    0.0000 O   0  0  0  0  0  0  0  0  0  0  0  0
    0.7500   -1.2990    0.0000 C   0  0  0  0  0  0  0  0  0  0  0  0
    1.5000    0.0000    0.0000 C   0  0  0  0  0  0  0  0  0  0  0  0
    0.7500    1.2990    0.0000 C   0  0  0  0  0  0  0  0  0  0  0  0
   -0.7500    1.2990    0.0000 C   0  0  0  0  0  0  0  0  0  0  0  0
   -1.5000    0.0000    0.0000 C   0  0  0  0  0  0  0  0  0  0  0  0
   -0.7500   -1.2990    0.0000 C   0  0  0  0  0  0  0  0  0  0  0  0
   -1.9635   -2.1807    0.0000 C   0  0  0  0  0  0  0  0  0  0  0  0
   -2.9672   -1.0660    0.0000 C   0  0  0  0  0  0  0  0  0  0  0  0
   -4.4344   -1.3779    0.0000 C   0  0  0  0  0  0  0  0  0  0  0  0
   -4.8980   -2.8045    0.0000 C   0  0  0  0  0  0  0  0  0  0  0  0
   -3.8943   -3.9192    0.0000 C   0  0  0  0  0  0  0  0  0  0  0  0
   -2.4271   -3.6073    0.0000 C   0  0  0  0  0  0  0  0  0  0  0  0
  1  2  1  0
  2  3  1  0
  3  4  1  0
  4  5  1  0
  5  6  1  0
  6  7  1  0
  7  8  1  0
  8  9  2  0
  8 10  1  0
 10 11  1  0
 11 12  2  0
 12 13  1  0
 13 14  2  0
 14 15  1  0
 15 16  1  0
 16 17  2  0
 17 18  1  0
 18 19  2  0
 19 20  1  0
 20 21  2  0
 20 22  1  0
 22 23  1  0
 23 24  2  0
 24 25  1  0
 25 26  2  0
 26 27  1  0
 27 28  2  0
 19 29  1  0
 29 30  2  0
  7 31  1  0
 31 32  2  0
 32 33  1  0
 33 34  2  0
 34 35  1  0
 35 36  2  0
 36 37  1  0
 37 38  2  0
 38 39  1  0
 39 40  2  0
 40 41  1  0
 41 42  2  0
 42  2  1  0
 15 11  1  0
 29 16  1  0
 36 31  1  0
 42 37  1  0
 28 23  1  0
M  END
>  <Title>  (525) 
idAASGgen14

$$$$

     RDKit          2D

  7  7  0  0  0  0  0  0  0  0999 V2000
    2.7760    0.0000    0.0000 C   0  0  0  0  0  0  0  0  0  0  0  0
    1.2760    0.0000    0.0000 C   0  0  0  0  0  0  0  0  0  0  0  0
    0.3943    1.2135    0.0000 C   0  0  0  0  0  0  0  0  0  0  0  0
   -1.0323    0.7500    0.0000 C   0  0  0  0  0  0  0  0  0  0  0  0
   -2.2458    1.6317    0.0000 O   0  0  0  0  0  0  0  0  0  0  0  0
   -1.0323   -0.7500    0.0000 C   0  0  0  0  0  0  0  0  0  0  0  0
    0.3943   -1.2135    0.0000 C   0  0  0  0  0  0  0  0  0  0  0  0
  1  2  1  0
  2  3  2  0
  3  4  1  0
  4  5  1  0
  4  6  1  0
  6  7  2  0
  7  2  1  0
M  END
>  <Title>  (526) 
idAASHgen14

$$$$

     RDKit          2D

 13 13  0  0  0  0  0  0  0  0999 V2000
    7.6471   -0.5490    0.0000 C   0  0  0  0  0  0  0  0  0  0  0  0
    6.3481   -1.2990    0.0000 C   0  0  0  0  0  0  0  0  0  0  0  0
    5.0490   -0.5490    0.0000 C   0  0  0  0  0  0  0  0  0  0  0  0
    3.7500   -1.2990    0.0000 C   0  0  0  0  0  0  0  0  0  0  0  0
    2.4510   -2.0490    0.0000 C   0  0  0  0  0  0  0  0  0  0  0  0
    4.5000   -2.5981    0.0000 O   0  0  0  0  0  0  0  0  0  0  0  0
    3.0000    0.0000    0.0000 N   0  0  0  0  0  0  0  0  0  0  0  0
    1.5000    0.0000    0.0000 C   0  0  0  0  0  0  0  0  0  0  0  0
    0.7500   -1.2990    0.0000 C   0  0  0  0  0  0  0  0  0  0  0  0
   -0.7500   -1.2990    0.0000 C   0  0  0  0  0  0  0  0  0  0  0  0
   -1.5000    0.0000    0.0000 C   0  0  0  0  0  0  0  0  0  0  0  0
   -0.7500    1.2990    0.0000 C   0  0  0  0  0  0  0  0  0  0  0  0
    0.7500    1.2990    0.0000 C   0  0  0  0  0  0  0  0  0  0  0  0
  1  2  1  0
  2  3  1  0
  3  4  1  0
  4  5  1  0
  4  6  1  0
  4  7  1  0
  7  8  1  0
  8  9  2  0
  9 10  1  0
 10 11  2  0
 11 12  1  0
 12 13  2  0
 13  8  1  0
M  END
>  <Title>  (527) 
idAASIgen14

$$$$

     RDKit          2D

 11 11  0  0  0  0  0  0  0  0999 V2000
    3.7500   -3.8971    0.0000 C   0  0  0  0  0  0  0  0  0  0  0  0
    3.0000   -2.5981    0.0000 N   0  0  0  0  0  0  0  0  0  0  0  0
    3.7500   -1.2990    0.0000 C   0  0  0  0  0  0  0  0  0  0  0  0
    5.2500   -1.2990    0.0000 C   0  0  0  0  0  0  0  0  0  0  0  0
    3.0000    0.0000    0.0000 C   0  0  0  0  0  0  0  0  0  0  0  0
    1.5000    0.0000    0.0000 C   0  0  0  0  0  0  0  0  0  0  0  0
    0.7500   -1.2990    0.0000 C   0  0  0  0  0  0  0  0  0  0  0  0
   -0.7500   -1.2990    0.0000 S   0  0  0  0  0  0  0  0  0  0  0  0
   -1.5000    0.0000    0.0000 C   0  0  0  0  0  0  0  0  0  0  0  0
   -0.7500    1.2990    0.0000 C   0  0  0  0  0  0  0  0  0  0  0  0
    0.7500    1.2990    0.0000 N   0  0  0  0  0  0  0  0  0  0  0  0
  1  2  1  0
  2  3  1  0
  3  4  1  0
  3  5  1  0
  5  6  1  0
  6  7  2  0
  7  8  1  0
  8  9  1  0
  9 10  1  0
 10 11  2  0
 11  6  1  0
M  END
>  <Title>  (528) 
idAASJgen14

$$$$

     RDKit          2D

115115  0  0  0  0  0  0  0  0999 V2000
   28.7189    0.0000    0.0000 C   0  0  0  0  0  0  0  0  0  0  0  0
   27.2189    0.0000    0.0000 C   0  0  0  0  0  0  0  0  0  0  0  0
   27.1776   -1.4994    0.0000 C   0  0  0  0  0  0  0  0  0  0  0  0
   27.0537   -2.9943    0.0000 C   0  0  0  0  0  0  0  0  0  0  0  0
   26.8477   -4.4801    0.0000 C   0  0  0  0  0  0  0  0  0  0  0  0
   26.5601   -5.9523    0.0000 C   0  0  0  0  0  0  0  0  0  0  0  0
   26.1919   -7.4064    0.0000 C   0  0  0  0  0  0  0  0  0  0  0  0
   25.7441   -8.8380    0.0000 C   0  0  0  0  0  0  0  0  0  0  0  0
   25.2182  -10.2427    0.0000 C   0  0  0  0  0  0  0  0  0  0  0  0
   24.6156  -11.6164    0.0000 C   0  0  0  0  0  0  0  0  0  0  0  0
   23.9383  -12.9548    0.0000 C   0  0  0  0  0  0  0  0  0  0  0  0
   23.1883  -14.2538    0.0000 C   0  0  0  0  0  0  0  0  0  0  0  0
   22.3679  -15.5096    0.0000 C   0  0  0  0  0  0  0  0  0  0  0  0
   21.4796  -16.7182    0.0000 C   0  0  0  0  0  0  0  0  0  0  0  0
   20.5260  -17.8761    0.0000 C   0  0  0  0  0  0  0  0  0  0  0  0
   19.5101  -18.9797    0.0000 C   0  0  0  0  0  0  0  0  0  0  0  0
   18.4349  -20.0256    0.0000 C   0  0  0  0  0  0  0  0  0  0  0  0
   17.3037  -21.0108    0.0000 C   0  0  0  0  0  0  0  0  0  0  0  0
   16.1200  -21.9321    0.0000 C   0  0  0  0  0  0  0  0  0  0  0  0
   14.8873  -22.7868    0.0000 C   0  0  0  0  0  0  0  0  0  0  0  0
   13.6095  -23.5723    0.0000 C   0  0  0  0  0  0  0  0  0  0  0  0
   12.2903  -24.2862    0.0000 C   0  0  0  0  0  0  0  0  0  0  0  0
   10.9337  -24.9264    0.0000 C   0  0  0  0  0  0  0  0  0  0  0  0
    9.5440  -25.4908    0.0000 C   0  0  0  0  0  0  0  0  0  0  0  0
    8.1253  -25.9779    0.0000 C   0  0  0  0  0  0  0  0  0  0  0  0
    6.6819  -26.3860    0.0000 C   0  0  0  0  0  0  0  0  0  0  0  0
    5.2182  -26.7141    0.0000 C   0  0  0  0  0  0  0  0  0  0  0  0
    3.7386  -26.9610    0.0000 C   0  0  0  0  0  0  0  0  0  0  0  0
    2.2477  -27.1260    0.0000 C   0  0  0  0  0  0  0  0  0  0  0  0
    0.7500  -27.2086    0.0000 C   0  0  0  0  0  0  0  0  0  0  0  0
   -0.7500  -27.2086    0.0000 C   0  0  0  0  0  0  0  0  0  0  0  0
   -2.2477  -27.1260    0.0000 C   0  0  0  0  0  0  0  0  0  0  0  0
   -3.7386  -26.9610    0.0000 C   0  0  0  0  0  0  0  0  0  0  0  0
   -5.2182  -26.7141    0.0000 C   0  0  0  0  0  0  0  0  0  0  0  0
   -6.6819  -26.3860    0.0000 C   0  0  0  0  0  0  0  0  0  0  0  0
   -8.1253  -25.9779    0.0000 C   0  0  0  0  0  0  0  0  0  0  0  0
   -9.5440  -25.4908    0.0000 C   0  0  0  0  0  0  0  0  0  0  0  0
  -10.9337  -24.9264    0.0000 C   0  0  0  0  0  0  0  0  0  0  0  0
  -12.2903  -24.2862    0.0000 C   0  0  0  0  0  0  0  0  0  0  0  0
  -13.6095  -23.5723    0.0000 C   0  0  0  0  0  0  0  0  0  0  0  0
  -14.8873  -22.7868    0.0000 C   0  0  0  0  0  0  0  0  0  0  0  0
  -16.1200  -21.9321    0.0000 C   0  0  0  0  0  0  0  0  0  0  0  0
  -17.3037  -21.0108    0.0000 C   0  0  0  0  0  0  0  0  0  0  0  0
  -18.4349  -20.0256    0.0000 C   0  0  0  0  0  0  0  0  0  0  0  0
  -19.5101  -18.9797    0.0000 C   0  0  0  0  0  0  0  0  0  0  0  0
  -20.5260  -17.8761    0.0000 C   0  0  0  0  0  0  0  0  0  0  0  0
  -21.4796  -16.7182    0.0000 C   0  0  0  0  0  0  0  0  0  0  0  0
  -22.3679  -15.5096    0.0000 C   0  0  0  0  0  0  0  0  0  0  0  0
  -23.1883  -14.2538    0.0000 C   0  0  0  0  0  0  0  0  0  0  0  0
  -23.9383  -12.9548    0.0000 C   0  0  0  0  0  0  0  0  0  0  0  0
  -24.6156  -11.6164    0.0000 C   0  0  0  0  0  0  0  0  0  0  0  0
  -25.2182  -10.2427    0.0000 C   0  0  0  0  0  0  0  0  0  0  0  0
  -25.7441   -8.8380    0.0000 C   0  0  0  0  0  0  0  0  0  0  0  0
  -26.1919   -7.4064    0.0000 C   0  0  0  0  0  0  0  0  0  0  0  0
  -26.5601   -5.9523    0.0000 C   0  0  0  0  0  0  0  0  0  0  0  0
  -26.8477   -4.4801    0.0000 C   0  0  0  0  0  0  0  0  0  0  0  0
  -27.0537   -2.9943    0.0000 C   0  0  0  0  0  0  0  0  0  0  0  0
  -27.1776   -1.4994    0.0000 C   0  0  0  0  0  0  0  0  0  0  0  0
  -27.2189    0.0000    0.0000 C   0  0  0  0  0  0  0  0  0  0  0  0
  -27.1776    1.4994    0.0000 C   0  0  0  0  0  0  0  0  0  0  0  0
  -27.0537    2.9943    0.0000 C   0  0  0  0  0  0  0  0  0  0  0  0
  -26.8477    4.4801    0.0000 C   0  0  0  0  0  0  0  0  0  0  0  0
  -26.5601    5.9523    0.0000 C   0  0  0  0  0  0  0  0  0  0  0  0
  -26.1919    7.4064    0.0000 C   0  0  0  0  0  0  0  0  0  0  0  0
  -25.7441    8.8380    0.0000 C   0  0  0  0  0  0  0  0  0  0  0  0
  -25.2182   10.2427    0.0000 C   0  0  0  0  0  0  0  0  0  0  0  0
  -24.6156   11.6164    0.0000 C   0  0  0  0  0  0  0  0  0  0  0  0
  -23.9383   12.9548    0.0000 C   0  0  0  0  0  0  0  0  0  0  0  0
  -23.1883   14.2538    0.0000 C   0  0  0  0  0  0  0  0  0  0  0  0
  -22.3679   15.5096    0.0000 C   0  0  0  0  0  0  0  0  0  0  0  0
  -21.4796   16.7182    0.0000 C   0  0  0  0  0  0  0  0  0  0  0  0
  -20.5260   17.8761    0.0000 C   0  0  0  0  0  0  0  0  0  0  0  0
  -19.5101   18.9797    0.0000 C   0  0  0  0  0  0  0  0  0  0  0  0
  -18.4349   20.0256    0.0000 C   0  0  0  0  0  0  0  0  0  0  0  0
  -17.3037   21.0108    0.0000 C   0  0  0  0  0  0  0  0  0  0  0  0
  -16.1200   21.9321    0.0000 C   0  0  0  0  0  0  0  0  0  0  0  0
  -14.8873   22.7868    0.0000 C   0  0  0  0  0  0  0  0  0  0  0  0
  -13.6095   23.5723    0.0000 C   0  0  0  0  0  0  0  0  0  0  0  0
  -12.2903   24.2862    0.0000 C   0  0  0  0  0  0  0  0  0  0  0  0
  -10.9337   24.9264    0.0000 C   0  0  0  0  0  0  0  0  0  0  0  0
   -9.5440   25.4908    0.0000 C   0  0  0  0  0  0  0  0  0  0  0  0
   -8.1253   25.9779    0.0000 C   0  0  0  0  0  0  0  0  0  0  0  0
   -6.6819   26.3860    0.0000 C   0  0  0  0  0  0  0  0  0  0  0  0
   -5.2182   26.7141    0.0000 C   0  0  0  0  0  0  0  0  0  0  0  0
   -3.7386   26.9610    0.0000 C   0  0  0  0  0  0  0  0  0  0  0  0
   -2.2477   27.1260    0.0000 C   0  0  0  0  0  0  0  0  0  0  0  0
   -0.7500   27.2086    0.0000 C   0  0  0  0  0  0  0  0  0  0  0  0
    0.7500   27.2086    0.0000 C   0  0  0  0  0  0  0  0  0  0  0  0
    2.2477   27.1260    0.0000 C   0  0  0  0  0  0  0  0  0  0  0  0
    3.7386   26.9610    0.0000 C   0  0  0  0  0  0  0  0  0  0  0  0
    5.2182   26.7141    0.0000 C   0  0  0  0  0  0  0  0  0  0  0  0
    6.6819   26.3860    0.0000 C   0  0  0  0  0  0  0  0  0  0  0  0
    8.1253   25.9779    0.0000 C   0  0  0  0  0  0  0  0  0  0  0  0
    9.5440   25.4908    0.0000 C   0  0  0  0  0  0  0  0  0  0  0  0
   10.9337   24.9264    0.0000 C   0  0  0  0  0  0  0  0  0  0  0  0
   12.2903   24.2862    0.0000 C   0  0  0  0  0  0  0  0  0  0  0  0
   13.6095   23.5723    0.0000 C   0  0  0  0  0  0  0  0  0  0  0  0
   14.8873   22.7868    0.0000 C   0  0  0  0  0  0  0  0  0  0  0  0
   16.1200   21.9321    0.0000 C   0  0  0  0  0  0  0  0  0  0  0  0
   17.3037   21.0108    0.0000 C   0  0  0  0  0  0  0  0  0  0  0  0
   18.4349   20.0256    0.0000 C   0  0  0  0  0  0  0  0  0  0  0  0
   19.5101   18.9797    0.0000 C   0  0  0  0  0  0  0  0  0  0  0  0
   20.5260   17.8761    0.0000 C   0  0  0  0  0  0  0  0  0  0  0  0
   21.4796   16.7182    0.0000 C   0  0  0  0  0  0  0  0  0  0  0  0
   22.3679   15.5096    0.0000 C   0  0  0  0  0  0  0  0  0  0  0  0
   23.1883   14.2538    0.0000 C   0  0  0  0  0  0  0  0  0  0  0  0
   23.9383   12.9548    0.0000 C   0  0  0  0  0  0  0  0  0  0  0  0
   24.6156   11.6164    0.0000 C   0  0  0  0  0  0  0  0  0  0  0  0
   25.2182   10.2427    0.0000 C   0  0  0  0  0  0  0  0  0  0  0  0
   25.7441    8.8380    0.0000 C   0  0  0  0  0  0  0  0  0  0  0  0
   26.1919    7.4064    0.0000 C   0  0  0  0  0  0  0  0  0  0  0  0
   26.5601    5.9523    0.0000 C   0  0  0  0  0  0  0  0  0  0  0  0
   26.8477    4.4801    0.0000 C   0  0  0  0  0  0  0  0  0  0  0  0
   27.0537    2.9943    0.0000 C   0  0  0  0  0  0  0  0  0  0  0  0
   27.1776    1.4994    0.0000 C   0  0  0  0  0  0  0  0  0  0  0  0
  1  2  1  0
  2  3  1  0
  3  4  2  0
  4  5  1  0
  5  6  2  0
  6  7  1  0
  7  8  2  0
  8  9  1  0
  9 10  2  0
 10 11  1  0
 11 12  2  0
 12 13  1  0
 13 14  2  0
 14 15  1  0
 15 16  2  0
 16 17  1  0
 17 18  2  0
 18 19  1  0
 19 20  2  0
 20 21  1  0
 21 22  2  0
 22 23  1  0
 23 24  2  0
 24 25  1  0
 25 26  1  0
 26 27  1  0
 27 28  1  0
 28 29  1  0
 29 30  1  0
 30 31  1  0
 31 32  1  0
 32 33  1  0
 33 34  1  0
 34 35  1  0
 35 36  1  0
 36 37  1  0
 37 38  1  0
 38 39  1  0
 39 40  1  0
 40 41  1  0
 41 42  1  0
 42 43  1  0
 43 44  1  0
 44 45  1  0
 45 46  1  0
 46 47  1  0
 47 48  1  0
 48 49  1  0
 49 50  1  0
 50 51  1  0
 51 52  1  0
 52 53  1  0
 53 54  1  0
 54 55  1  0
 55 56  1  0
 56 57  1  0
 57 58  1  0
 58 59  1  0
 59 60  1  0
 60 61  1  0
 61 62  1  0
 62 63  1  0
 63 64  1  0
 64 65  1  0
 65 66  1  0
 66 67  1  0
 67 68  1  0
 68 69  1  0
 69 70  1  0
 70 71  1  0
 71 72  1  0
 72 73  1  0
 73 74  1  0
 74 75  1  0
 75 76  1  0
 76 77  1  0
 77 78  1  0
 78 79  1  0
 79 80  1  0
 80 81  1  0
 81 82  1  0
 82 83  1  0
 83 84  1  0
 84 85  1  0
 85 86  1  0
 86 87  1  0
 87 88  1  0
 88 89  1  0
 89 90  1  0
 90 91  1  0
 91 92  1  0
 92 93  1  0
 93 94  1  0
 94 95  1  0
 95 96  1  0
 96 97  1  0
 97 98  1  0
 98 99  1  0
 99100  1  0
100101  1  0
101102  1  0
102103  1  0
103104  1  0
104105  1  0
105106  1  0
106107  1  0
107108  1  0
108109  1  0
109110  1  0
110111  1  0
111112  1  0
112113  1  0
113114  1  0
114115  1  0
115  2  1  0
M  END
>  <Title>  (529) 
idAASKgen14

$$$$

     RDKit          2D

 34 38  0  0  0  0  0  0  0  0999 V2000
   10.0051   -0.5013    0.0000 C   0  0  0  0  0  0  0  0  0  0  0  0
    8.5134   -0.6581    0.0000 C   0  0  0  0  0  0  0  0  0  0  0  0
    7.7634   -1.9571    0.0000 C   0  0  0  0  0  0  0  0  0  0  0  0
    6.2961   -1.6453    0.0000 S   0  0  0  0  0  4  0  0  0  0  0  0
    5.1814   -2.6490    0.0000 C   0  0  0  0  0  0  0  0  0  0  0  0
    5.4933   -4.1162    0.0000 C   0  0  0  0  0  0  0  0  0  0  0  0
    6.9199   -4.5797    0.0000 O   0  0  0  0  0  0  0  0  0  0  0  0
    4.3786   -5.1199    0.0000 N   0  0  0  0  0  0  0  0  0  0  0  0
    4.6904   -6.5871    0.0000 C   0  0  0  0  0  0  0  0  0  0  0  0
    6.0607   -7.1972    0.0000 N   0  0  0  0  0  0  0  0  0  0  0  0
    5.9040   -8.6890    0.0000 N   0  0  0  0  0  0  0  0  0  0  0  0
    4.4367   -9.0009    0.0000 N   0  0  0  0  0  0  0  0  0  0  0  0
    3.6867   -7.7018    0.0000 N   0  0  0  0  0  0  0  0  0  0  0  0
    2.1950   -7.5450    0.0000 C   0  0  0  0  0  0  0  0  0  0  0  0
    1.4450   -6.2460    0.0000 C   0  0  0  0  0  0  0  0  0  0  0  0
   -0.0223   -6.5579    0.0000 C   0  0  0  0  0  0  0  0  0  0  0  0
   -0.1791   -8.0497    0.0000 C   0  0  0  0  0  0  0  0  0  0  0  0
   -1.4781   -8.7997    0.0000 C   0  0  0  0  0  0  0  0  0  0  0  0
   -1.4781  -10.2997    0.0000 O   0  0  0  0  0  0  0  0  0  0  0  0
   -2.7771   -8.0497    0.0000 N   0  0  0  0  0  0  0  0  0  0  0  0
   -4.0762   -8.7997    0.0000 C   0  0  0  0  0  0  0  0  0  0  0  0
   -4.0762  -10.2997    0.0000 N   0  0  0  0  0  0  0  0  0  0  0  0
   -5.3752  -11.0497    0.0000 N   0  0  0  0  0  0  0  0  0  0  0  0
   -6.6743  -10.2997    0.0000 N   0  0  0  0  0  0  0  0  0  0  0  0
   -6.6743   -8.7997    0.0000 N   0  0  0  0  0  0  0  0  0  0  0  0
   -5.3752   -8.0497    0.0000 N   0  0  0  0  0  0  0  0  0  0  0  0
    1.1913   -8.6598    0.0000 C   0  0  0  0  0  0  0  0  0  0  0  0
    1.5031  -10.1270    0.0000 O   0  0  0  0  0  0  0  0  0  0  0  0
    6.1393   -0.1535    0.0000 C   0  0  0  0  0  0  0  0  0  0  0  0
    4.9258    0.7282    0.0000 C   0  0  0  0  0  0  0  0  0  0  0  0
    5.0826    2.2200    0.0000 C   0  0  0  0  0  0  0  0  0  0  0  0
    6.4529    2.8301    0.0000 C   0  0  0  0  0  0  0  0  0  0  0  0
    7.6664    1.9484    0.0000 C   0  0  0  0  0  0  0  0  0  0  0  0
    7.5097    0.4566    0.0000 C   0  0  0  0  0  0  0  0  0  0  0  0
  1  2  1  0
  2  3  2  0
  3  4  1  0
  4  5  1  0
  5  6  1  0
  6  7  2  0
  6  8  1  0
  8  9  1  0
  9 10  2  0
 10 11  1  0
 11 12  2  0
 12 13  1  0
 13 14  1  0
 14 15  2  0
 15 16  1  0
 16 17  2  0
 17 18  1  0
 18 19  2  0
 18 20  1  0
 20 21  1  0
 21 22  2  0
 22 23  1  0
 23 24  2  0
 24 25  1  0
 25 26  2  0
 17 27  1  0
 27 28  2  0
  4 29  1  0
 29 30  2  0
 30 31  1  0
 31 32  2  0
 32 33  1  0
 33 34  2  0
 34  2  1  0
 13  9  1  0
 27 14  1  0
 34 29  1  0
 26 21  1  0
M  END
>  <Title>  (530) 
idAASLgen14

$$$$

     RDKit          2D

  7  7  0  0  0  0  0  0  0  0999 V2000
    3.5260   -1.2990    0.0000 C   0  0  0  0  0  0  0  0  0  0  0  0
    2.7760    0.0000    0.0000 C   0  0  0  0  0  0  0  0  0  0  0  0
    1.2760    0.0000    0.0000 C   0  0  0  0  0  0  0  0  0  0  0  0
    0.3943    1.2135    0.0000 C   0  0  0  0  0  0  0  0  0  0  0  0
   -1.0323    0.7500    0.0000 C   0  0  0  0  0  0  0  0  0  0  0  0
   -1.0323   -0.7500    0.0000 C   0  0  0  0  0  0  0  0  0  0  0  0
    0.3943   -1.2135    0.0000 N   0  0  0  0  0  0  0  0  0  0  0  0
  1  2  1  0
  2  3  1  0
  3  4  2  0
  4  5  1  0
  5  6  2  0
  6  7  1  0
  7  3  1  0
M  END
>  <Title>  (531) 
idAASMgen14

$$$$

     RDKit          2D

 39 43  0  0  0  0  0  0  0  0999 V2000
    6.4718    8.3253    0.0000 C   0  0  0  0  0  0  0  0  0  0  0  0
    6.6953    6.8420    0.0000 C   0  0  0  0  0  0  0  0  0  0  0  0
    8.0917    6.2940    0.0000 O   0  0  0  0  0  0  0  0  0  0  0  0
    5.5226    5.9068    0.0000 N   0  0  0  0  0  0  0  0  0  0  0  0
    5.7462    4.4235    0.0000 C   0  0  0  0  0  0  0  0  0  0  0  0
    7.1795    3.9814    0.0000 C   0  0  0  0  0  0  0  0  0  0  0  0
    7.7275    2.5851    0.0000 C   0  0  0  0  0  0  0  0  0  0  0  0
    6.9775    1.2861    0.0000 C   0  0  0  0  0  0  0  0  0  0  0  0
    5.4943    1.0625    0.0000 C   0  0  0  0  0  0  0  0  0  0  0  0
    5.0522   -0.3709    0.0000 C   0  0  0  0  0  0  0  0  0  0  0  0
    6.0724   -1.4704    0.0000 C   0  0  0  0  0  0  0  0  0  0  0  0
    7.5348   -1.1367    0.0000 O   0  0  0  0  0  0  0  0  0  0  0  0
    5.6303   -2.9038    0.0000 N   0  0  0  0  0  0  0  0  0  0  0  0
    6.6505   -4.0034    0.0000 C   0  0  0  0  0  0  0  0  0  0  0  0
    8.1398   -3.8243    0.0000 N   0  0  0  0  0  0  0  0  0  0  0  0
    8.7703   -5.1853    0.0000 N   0  0  0  0  0  0  0  0  0  0  0  0
    7.6708   -6.2056    0.0000 N   0  0  0  0  0  0  0  0  0  0  0  0
    6.3607   -5.4751    0.0000 N   0  0  0  0  0  0  0  0  0  0  0  0
    4.9996   -6.1056    0.0000 N   0  0  0  0  0  0  0  0  0  0  0  0
    3.6895   -5.3752    0.0000 C   0  0  0  0  0  0  0  0  0  0  0  0
    2.5899   -6.3954    0.0000 C   0  0  0  0  0  0  0  0  0  0  0  0
    3.2205   -7.7565    0.0000 N   0  0  0  0  0  0  0  0  0  0  0  0
    2.4900   -9.0666    0.0000 C   0  0  0  0  0  0  0  0  0  0  0  0
    3.2593  -10.3542    0.0000 O   0  0  0  0  0  0  0  0  0  0  0  0
    0.9901   -9.0890    0.0000 N   0  0  0  0  0  0  0  0  0  0  0  0
    0.2597  -10.3991    0.0000 C   0  0  0  0  0  0  0  0  0  0  0  0
    1.0290  -11.6868    0.0000 N   0  0  0  0  0  0  0  0  0  0  0  0
    0.2985  -12.9969    0.0000 N   0  0  0  0  0  0  0  0  0  0  0  0
   -1.2013  -13.0193    0.0000 N   0  0  0  0  0  0  0  0  0  0  0  0
   -1.9707  -11.7317    0.0000 N   0  0  0  0  0  0  0  0  0  0  0  0
   -1.2402  -10.4216    0.0000 N   0  0  0  0  0  0  0  0  0  0  0  0
    4.7097   -7.5774    0.0000 C   0  0  0  0  0  0  0  0  0  0  0  0
    5.7300   -8.6769    0.0000 O   0  0  0  0  0  0  0  0  0  0  0  0
    4.3947    2.0828    0.0000 C   0  0  0  0  0  0  0  0  0  0  0  0
    3.0433    1.4319    0.0000 C   0  0  0  0  0  0  0  0  0  0  0  0
    1.8039    2.2769    0.0000 C   0  0  0  0  0  0  0  0  0  0  0  0
    1.9160    3.7727    0.0000 C   0  0  0  0  0  0  0  0  0  0  0  0
    3.2674    4.4235    0.0000 C   0  0  0  0  0  0  0  0  0  0  0  0
    4.5068    3.5786    0.0000 C   0  0  0  0  0  0  0  0  0  0  0  0
  1  2  1  0
  2  3  2  0
  2  4  1  0
  4  5  1  0
  5  6  2  0
  6  7  1  0
  7  8  1  0
  8  9  1  0
  9 10  1  0
 10 11  1  0
 11 12  2  0
 11 13  1  0
 13 14  1  0
 14 15  2  0
 15 16  1  0
 16 17  2  0
 17 18  1  0
 18 19  1  0
 19 20  1  0
 20 21  1  0
 21 22  1  0
 22 23  1  0
 23 24  2  0
 23 25  1  0
 25 26  1  0
 26 27  2  0
 27 28  1  0
 28 29  2  0
 29 30  1  0
 30 31  2  0
 22 32  1  0
 32 33  2  0
  9 34  1  0
 34 35  2  0
 35 36  1  0
 36 37  2  0
 37 38  1  0
 38 39  2  0
 39  5  1  0
 18 14  1  0
 32 19  1  0
 39 34  1  0
 31 26  1  0
M  END
>  <Title>  (532) 
idAASNgen14

$$$$

     RDKit          2D

 39 44  0  0  0  0  0  0  0  0999 V2000
   -0.0000   -8.0154    0.0000 C   0  0  0  0  0  0  0  0  0  0  0  0
   -0.0000   -6.5154    0.0000 C   0  0  0  0  0  0  0  0  0  0  0  0
    1.4392   -6.0928    0.0000 C   0  0  0  0  0  0  0  0  0  0  0  0
    2.4215   -4.9592    0.0000 C   0  0  0  0  0  0  0  0  0  0  0  0
    2.6350   -3.4744    0.0000 C   0  0  0  0  0  0  0  0  0  0  0  0
    2.0119   -2.1100    0.0000 C   0  0  0  0  0  0  0  0  0  0  0  0
    3.1455   -1.1277    0.0000 C   0  0  0  0  0  0  0  0  0  0  0  0
    2.8616    0.3452    0.0000 O   0  0  0  0  0  0  0  0  0  0  0  0
    4.5630   -1.6183    0.0000 N   0  0  0  0  0  0  0  0  0  0  0  0
    5.6966   -0.6360    0.0000 C   0  0  0  0  0  0  0  0  0  0  0  0
    5.5683    0.8585    0.0000 N   0  0  0  0  0  0  0  0  0  0  0  0
    6.9500    1.4424    0.0000 N   0  0  0  0  0  0  0  0  0  0  0  0
    7.9322    0.3088    0.0000 N   0  0  0  0  0  0  0  0  0  0  0  0
    7.1576   -0.9758    0.0000 N   0  0  0  0  0  0  0  0  0  0  0  0
    7.7416   -2.3574    0.0000 C   0  0  0  0  0  0  0  0  0  0  0  0
    6.8369   -3.5540    0.0000 C   0  0  0  0  0  0  0  0  0  0  0  0
    7.4208   -4.9357    0.0000 C   0  0  0  0  0  0  0  0  0  0  0  0
    8.9094   -5.1208    0.0000 C   0  0  0  0  0  0  0  0  0  0  0  0
    9.4933   -6.5025    0.0000 O   0  0  0  0  0  0  0  0  0  0  0  0
    9.8140   -3.9243    0.0000 C   0  0  0  0  0  0  0  0  0  0  0  0
    9.2301   -2.5426    0.0000 C   0  0  0  0  0  0  0  0  0  0  0  0
    0.7500   -1.2990    0.0000 C   0  0  0  0  0  0  0  0  0  0  0  0
    1.5000    0.0000    0.0000 C   0  0  0  0  0  0  0  0  0  0  0  0
    0.7500    1.2990    0.0000 C   0  0  0  0  0  0  0  0  0  0  0  0
   -0.7500    1.2990    0.0000 C   0  0  0  0  0  0  0  0  0  0  0  0
   -1.5000    0.0000    0.0000 C   0  0  0  0  0  0  0  0  0  0  0  0
   -0.7500   -1.2990    0.0000 C   0  0  0  0  0  0  0  0  0  0  0  0
   -2.0119   -2.1100    0.0000 C   0  0  0  0  0  0  0  0  0  0  0  0
   -2.8820   -0.8881    0.0000 C   0  0  0  0  0  0  0  0  0  0  0  0
   -4.3752   -1.0307    0.0000 C   0  0  0  0  0  0  0  0  0  0  0  0
   -4.9983   -2.3952    0.0000 C   0  0  0  0  0  0  0  0  0  0  0  0
   -4.1282   -3.6170    0.0000 C   0  0  0  0  0  0  0  0  0  0  0  0
   -2.6350   -3.4744    0.0000 C   0  0  0  0  0  0  0  0  0  0  0  0
   -2.4215   -4.9592    0.0000 C   0  0  0  0  0  0  0  0  0  0  0  0
   -3.8944   -5.2431    0.0000 C   0  0  0  0  0  0  0  0  0  0  0  0
   -4.3850   -6.6606    0.0000 C   0  0  0  0  0  0  0  0  0  0  0  0
   -3.4027   -7.7942    0.0000 C   0  0  0  0  0  0  0  0  0  0  0  0
   -1.9298   -7.5103    0.0000 C   0  0  0  0  0  0  0  0  0  0  0  0
   -1.4392   -6.0928    0.0000 C   0  0  0  0  0  0  0  0  0  0  0  0
  1  2  1  0
  2  3  2  0
  3  4  1  0
  4  5  1  0
  5  6  2  0
  6  7  1  0
  7  8  2  0
  7  9  1  0
  9 10  1  0
 10 11  2  0
 11 12  1  0
 12 13  2  0
 13 14  1  0
 14 15  1  0
 15 16  2  0
 16 17  1  0
 17 18  2  0
 18 19  1  0
 18 20  1  0
 20 21  2  0
  6 22  1  0
 22 23  2  0
 23 24  1  0
 24 25  2  0
 25 26  1  0
 26 27  2  0
 27 28  1  0
 28 29  2  0
 29 30  1  0
 30 31  2  0
 31 32  1  0
 32 33  2  0
 33 34  1  0
 34 35  2  0
 35 36  1  0
 36 37  2  0
 37 38  1  0
 38 39  2  0
 39  2  1  0
 14 10  1  0
 21 15  1  0
 27 22  1  0
 33 28  1  0
 39 34  1  0
M  END
>  <Title>  (533) 
idAASOgen14

$$$$

     RDKit          2D

 11 11  0  0  0  0  0  0  0  0999 V2000
    7.5000   -2.5981    0.0000 C   0  0  0  0  0  0  0  0  0  0  0  0
    6.0000   -2.5981    0.0000 C   0  0  0  0  0  0  0  0  0  0  0  0
    5.2500   -1.2990    0.0000 C   0  0  0  0  0  0  0  0  0  0  0  0
    3.7500   -1.2990    0.0000 N   0  0  0  0  0  0  0  0  0  0  0  0
    3.0000    0.0000    0.0000 C   0  0  0  0  0  0  0  0  0  0  0  0
    1.5000    0.0000    0.0000 C   0  0  0  0  0  0  0  0  0  0  0  0
    0.7500   -1.2990    0.0000 C   0  0  0  0  0  0  0  0  0  0  0  0
   -0.7500   -1.2990    0.0000 C   0  0  0  0  0  0  0  0  0  0  0  0
   -1.5000    0.0000    0.0000 C   0  0  0  0  0  0  0  0  0  0  0  0
   -0.7500    1.2990    0.0000 N   0  0  0  0  0  0  0  0  0  0  0  0
    0.7500    1.2990    0.0000 C   0  0  0  0  0  0  0  0  0  0  0  0
  1  2  1  0
  2  3  2  3
  3  4  1  0
  4  5  1  0
  5  6  1  0
  6  7  2  0
  7  8  1  0
  8  9  2  0
  9 10  1  0
 10 11  2  0
 11  6  1  0
M  END
>  <Title>  (534) 
idAASPgen14

$$$$

     RDKit          2D

 39 44  0  0  0  0  0  0  0  0999 V2000
   -3.4182    0.0420    0.0000 C   0  0  0  0  0  0  0  0  0  0  0  0
   -3.8817   -1.3846    0.0000 C   0  0  0  0  0  0  0  0  0  0  0  0
   -5.3083   -1.8481    0.0000 C   0  0  0  0  0  0  0  0  0  0  0  0
   -5.3083   -3.3481    0.0000 N   0  0  0  0  0  0  0  0  0  0  0  0
   -3.8817   -3.8116    0.0000 N   0  0  0  0  0  0  0  0  0  0  0  0
   -3.0000   -2.5981    0.0000 N   0  0  0  0  0  0  0  0  0  0  0  0
   -1.5000   -2.5981    0.0000 C   0  0  0  0  0  0  0  0  0  0  0  0
   -0.7500   -3.8971    0.0000 C   0  0  0  0  0  0  0  0  0  0  0  0
    0.7500   -3.8971    0.0000 C   0  0  0  0  0  0  0  0  0  0  0  0
    1.5000   -2.5981    0.0000 C   0  0  0  0  0  0  0  0  0  0  0  0
    3.0000   -2.5981    0.0000 C   0  0  0  0  0  0  0  0  0  0  0  0
    3.7500   -1.2990    0.0000 O   0  0  0  0  0  0  0  0  0  0  0  0
    3.7500   -3.8971    0.0000 N   0  0  0  0  0  0  0  0  0  0  0  0
    5.2500   -3.8971    0.0000 C   0  0  0  0  0  0  0  0  0  0  0  0
    6.1317   -2.6836    0.0000 N   0  0  0  0  0  0  0  0  0  0  0  0
    7.5583   -3.1471    0.0000 N   0  0  0  0  0  0  0  0  0  0  0  0
    7.5583   -4.6471    0.0000 N   0  0  0  0  0  0  0  0  0  0  0  0
    6.1317   -5.1106    0.0000 N   0  0  0  0  0  0  0  0  0  0  0  0
    5.6682   -6.5372    0.0000 N   0  0  0  0  0  0  0  0  0  0  0  0
    6.5498   -7.7508    0.0000 C   0  0  0  0  0  0  0  0  0  0  0  0
    5.6682   -8.9643    0.0000 C   0  0  0  0  0  0  0  0  0  0  0  0
    4.2416   -8.5008    0.0000 N   0  0  0  0  0  0  0  0  0  0  0  0
    3.0280   -9.3824    0.0000 C   0  0  0  0  0  0  0  0  0  0  0  0
    3.1848  -10.8742    0.0000 O   0  0  0  0  0  0  0  0  0  0  0  0
    1.6577   -8.7723    0.0000 N   0  0  0  0  0  0  0  0  0  0  0  0
    0.4442   -9.6540    0.0000 C   0  0  0  0  0  0  0  0  0  0  0  0
   -0.9261   -9.0439    0.0000 N   0  0  0  0  0  0  0  0  0  0  0  0
   -2.1396   -9.9256    0.0000 N   0  0  0  0  0  0  0  0  0  0  0  0
   -1.9829  -11.4174    0.0000 N   0  0  0  0  0  0  0  0  0  0  0  0
   -0.6125  -12.0275    0.0000 N   0  0  0  0  0  0  0  0  0  0  0  0
    0.6010  -11.1458    0.0000 N   0  0  0  0  0  0  0  0  0  0  0  0
    4.2416   -7.0008    0.0000 C   0  0  0  0  0  0  0  0  0  0  0  0
    3.0280   -6.1191    0.0000 O   0  0  0  0  0  0  0  0  0  0  0  0
    0.7500   -1.2990    0.0000 C   0  0  0  0  0  0  0  0  0  0  0  0
    1.5000    0.0000    0.0000 C   0  0  0  0  0  0  0  0  0  0  0  0
    0.7500    1.2990    0.0000 C   0  0  0  0  0  0  0  0  0  0  0  0
   -0.7500    1.2990    0.0000 C   0  0  0  0  0  0  0  0  0  0  0  0
   -1.5000    0.0000    0.0000 C   0  0  0  0  0  0  0  0  0  0  0  0
   -0.7500   -1.2990    0.0000 C   0  0  0  0  0  0  0  0  0  0  0  0
  1  2  1  0
  2  3  2  0
  3  4  1  0
  4  5  2  0
  5  6  1  0
  6  7  1  0
  7  8  2  0
  8  9  1  0
  9 10  2  0
 10 11  1  0
 11 12  2  0
 11 13  1  0
 13 14  1  0
 14 15  2  0
 15 16  1  0
 16 17  2  0
 17 18  1  0
 18 19  1  0
 19 20  1  0
 20 21  1  0
 21 22  1  0
 22 23  1  0
 23 24  2  0
 23 25  1  0
 25 26  1  0
 26 27  2  0
 27 28  1  0
 28 29  2  0
 29 30  1  0
 30 31  2  0
 22 32  1  0
 32 33  2  0
 10 34  1  0
 34 35  2  0
 35 36  1  0
 36 37  2  0
 37 38  1  0
 38 39  2  0
  6  2  1  0
 39  7  1  0
 18 14  1  0
 32 19  1  0
 39 34  1  0
 31 26  1  0
M  END
>  <Title>  (535) 
idAASQgen14

$$$$

     RDKit          2D

 39 44  0  0  0  0  0  0  0  0999 V2000
   -0.0000   -6.0850    0.0000 C   0  0  0  0  0  0  0  0  0  0  0  0
   -0.0000   -4.5850    0.0000 C   0  0  0  0  0  0  0  0  0  0  0  0
    1.3515   -3.9342    0.0000 C   0  0  0  0  0  0  0  0  0  0  0  0
    1.6852   -2.4718    0.0000 C   0  0  0  0  0  0  0  0  0  0  0  0
    3.1476   -2.1380    0.0000 C   0  0  0  0  0  0  0  0  0  0  0  0
    3.5898   -0.7046    0.0000 O   0  0  0  0  0  0  0  0  0  0  0  0
    4.1679   -3.2376    0.0000 N   0  0  0  0  0  0  0  0  0  0  0  0
    5.6303   -2.9038    0.0000 C   0  0  0  0  0  0  0  0  0  0  0  0
    6.2198   -1.5245    0.0000 N   0  0  0  0  0  0  0  0  0  0  0  0
    7.7138   -1.6590    0.0000 N   0  0  0  0  0  0  0  0  0  0  0  0
    8.0476   -3.1214    0.0000 N   0  0  0  0  0  0  0  0  0  0  0  0
    6.7599   -3.8907    0.0000 N   0  0  0  0  0  0  0  0  0  0  0  0
    6.6254   -5.3847    0.0000 C   0  0  0  0  0  0  0  0  0  0  0  0
    7.7550   -6.3716    0.0000 C   0  0  0  0  0  0  0  0  0  0  0  0
    7.1655   -7.7509    0.0000 C   0  0  0  0  0  0  0  0  0  0  0  0
    5.6715   -7.6164    0.0000 C   0  0  0  0  0  0  0  0  0  0  0  0
    4.6846   -8.7460    0.0000 C   0  0  0  0  0  0  0  0  0  0  0  0
    5.1694  -10.1655    0.0000 O   0  0  0  0  0  0  0  0  0  0  0  0
    3.2129   -8.4561    0.0000 N   0  0  0  0  0  0  0  0  0  0  0  0
    2.2260   -9.5857    0.0000 C   0  0  0  0  0  0  0  0  0  0  0  0
    0.7543   -9.2959    0.0000 N   0  0  0  0  0  0  0  0  0  0  0  0
   -0.2326  -10.4255    0.0000 N   0  0  0  0  0  0  0  0  0  0  0  0
    0.2522  -11.8450    0.0000 N   0  0  0  0  0  0  0  0  0  0  0  0
    1.7239  -12.1348    0.0000 N   0  0  0  0  0  0  0  0  0  0  0  0
    2.7108  -11.0052    0.0000 N   0  0  0  0  0  0  0  0  0  0  0  0
    5.3378   -6.1540    0.0000 C   0  0  0  0  0  0  0  0  0  0  0  0
    3.9585   -5.5645    0.0000 O   0  0  0  0  0  0  0  0  0  0  0  0
    0.7500   -1.2990    0.0000 C   0  0  0  0  0  0  0  0  0  0  0  0
    1.5000    0.0000    0.0000 C   0  0  0  0  0  0  0  0  0  0  0  0
    0.7500    1.2990    0.0000 C   0  0  0  0  0  0  0  0  0  0  0  0
   -0.7500    1.2990    0.0000 C   0  0  0  0  0  0  0  0  0  0  0  0
   -1.5000    0.0000    0.0000 C   0  0  0  0  0  0  0  0  0  0  0  0
   -0.7500   -1.2990    0.0000 C   0  0  0  0  0  0  0  0  0  0  0  0
   -1.6852   -2.4718    0.0000 C   0  0  0  0  0  0  0  0  0  0  0  0
   -3.1186   -2.0297    0.0000 C   0  0  0  0  0  0  0  0  0  0  0  0
   -4.2182   -3.0499    0.0000 C   0  0  0  0  0  0  0  0  0  0  0  0
   -3.8844   -4.5123    0.0000 C   0  0  0  0  0  0  0  0  0  0  0  0
   -2.4510   -4.9544    0.0000 C   0  0  0  0  0  0  0  0  0  0  0  0
   -1.3515   -3.9342    0.0000 C   0  0  0  0  0  0  0  0  0  0  0  0
  1  2  1  0
  2  3  2  0
  3  4  1  0
  4  5  1  0
  5  6  2  0
  5  7  1  0
  7  8  1  0
  8  9  2  0
  9 10  1  0
 10 11  2  0
 11 12  1  0
 12 13  1  0
 13 14  2  0
 14 15  1  0
 15 16  2  0
 16 17  1  0
 17 18  2  0
 17 19  1  0
 19 20  1  0
 20 21  2  0
 21 22  1  0
 22 23  2  0
 23 24  1  0
 24 25  2  0
 16 26  1  0
 26 27  2  0
  4 28  1  0
 28 29  2  0
 29 30  1  0
 30 31  2  0
 31 32  1  0
 32 33  2  0
 33 34  1  0
 34 35  2  0
 35 36  1  0
 36 37  2  0
 37 38  1  0
 38 39  2  0
 39  2  1  0
 12  8  1  0
 26 13  1  0
 33 28  1  0
 39 34  1  0
 25 20  1  0
M  END
>  <Title>  (536) 
idAASRgen14

$$$$

     RDKit          2D

 37 41  0  0  0  0  0  0  0  0999 V2000
   -3.1981   -1.5132    0.0000 C   0  0  0  0  0  0  0  0  0  0  0  0
   -1.8991   -2.2632    0.0000 C   0  0  0  0  0  0  0  0  0  0  0  0
   -2.1595   -3.7404    0.0000 C   0  0  0  0  0  0  0  0  0  0  0  0
   -1.4095   -5.0395    0.0000 C   0  0  0  0  0  0  0  0  0  0  0  0
   -0.0000   -5.5525    0.0000 C   0  0  0  0  0  0  0  0  0  0  0  0
    1.4095   -5.0395    0.0000 C   0  0  0  0  0  0  0  0  0  0  0  0
    2.1595   -3.7404    0.0000 C   0  0  0  0  0  0  0  0  0  0  0  0
    1.8991   -2.2632    0.0000 C   0  0  0  0  0  0  0  0  0  0  0  0
    3.1981   -1.5132    0.0000 C   0  0  0  0  0  0  0  0  0  0  0  0
    3.1981   -0.0132    0.0000 O   0  0  0  0  0  0  0  0  0  0  0  0
    4.4971   -2.2632    0.0000 N   0  0  0  0  0  0  0  0  0  0  0  0
    5.7962   -1.5132    0.0000 C   0  0  0  0  0  0  0  0  0  0  0  0
    5.9530   -0.0214    0.0000 N   0  0  0  0  0  0  0  0  0  0  0  0
    7.4202    0.2904    0.0000 N   0  0  0  0  0  0  0  0  0  0  0  0
    8.1702   -1.0086    0.0000 N   0  0  0  0  0  0  0  0  0  0  0  0
    7.1665   -2.1233    0.0000 N   0  0  0  0  0  0  0  0  0  0  0  0
    7.4784   -3.5905    0.0000 N   0  0  0  0  0  0  0  0  0  0  0  0
    8.8487   -4.2007    0.0000 C   0  0  0  0  0  0  0  0  0  0  0  0
    8.6919   -5.6924    0.0000 C   0  0  0  0  0  0  0  0  0  0  0  0
    7.2247   -6.0043    0.0000 N   0  0  0  0  0  0  0  0  0  0  0  0
    6.6146   -7.3746    0.0000 C   0  0  0  0  0  0  0  0  0  0  0  0
    7.4962   -8.5881    0.0000 O   0  0  0  0  0  0  0  0  0  0  0  0
    5.1228   -7.5314    0.0000 N   0  0  0  0  0  0  0  0  0  0  0  0
    4.5127   -8.9017    0.0000 C   0  0  0  0  0  0  0  0  0  0  0  0
    3.0209   -9.0585    0.0000 N   0  0  0  0  0  0  0  0  0  0  0  0
    2.4108  -10.4288    0.0000 N   0  0  0  0  0  0  0  0  0  0  0  0
    3.2925  -11.6424    0.0000 N   0  0  0  0  0  0  0  0  0  0  0  0
    4.7843  -11.4856    0.0000 N   0  0  0  0  0  0  0  0  0  0  0  0
    5.3944  -10.1153    0.0000 N   0  0  0  0  0  0  0  0  0  0  0  0
    6.4747   -4.7053    0.0000 C   0  0  0  0  0  0  0  0  0  0  0  0
    4.9829   -4.5485    0.0000 O   0  0  0  0  0  0  0  0  0  0  0  0
    0.7500   -1.2990    0.0000 C   0  0  0  0  0  0  0  0  0  0  0  0
    1.5000    0.0000    0.0000 C   0  0  0  0  0  0  0  0  0  0  0  0
    0.7500    1.2990    0.0000 C   0  0  0  0  0  0  0  0  0  0  0  0
   -0.7500    1.2990    0.0000 C   0  0  0  0  0  0  0  0  0  0  0  0
   -1.5000    0.0000    0.0000 C   0  0  0  0  0  0  0  0  0  0  0  0
   -0.7500   -1.2990    0.0000 C   0  0  0  0  0  0  0  0  0  0  0  0
  1  2  1  0
  2  3  1  0
  3  4  1  0
  4  5  1  0
  5  6  1  0
  6  7  1  0
  7  8  2  0
  8  9  1  0
  9 10  2  0
  9 11  1  0
 11 12  1  0
 12 13  2  0
 13 14  1  0
 14 15  2  0
 15 16  1  0
 16 17  1  0
 17 18  1  0
 18 19  1  0
 19 20  1  0
 20 21  1  0
 21 22  2  0
 21 23  1  0
 23 24  1  0
 24 25  2  0
 25 26  1  0
 26 27  2  0
 27 28  1  0
 28 29  2  0
 20 30  1  0
 30 31  2  0
  8 32  1  0
 32 33  2  0
 33 34  1  0
 34 35  2  0
 35 36  1  0
 36 37  2  0
 37  2  1  0
 16 12  1  0
 30 17  1  0
 37 32  1  0
 29 24  1  0
M  END
>  <Title>  (537) 
idAASSgen14

$$$$

     RDKit          2D

 20 20  0  0  0  0  0  0  0  0999 V2000
   15.0000   -7.7942    0.0000 C   0  0  0  0  0  0  0  0  0  0  0  0
   14.2500   -6.4952    0.0000 C   0  0  0  0  0  0  0  0  0  0  0  0
   12.7500   -6.4952    0.0000 C   0  0  0  0  0  0  0  0  0  0  0  0
   12.0000   -7.7942    0.0000 O   0  0  0  0  0  0  0  0  0  0  0  0
   12.0000   -5.1962    0.0000 N   0  0  0  0  0  0  0  0  0  0  0  0
   10.5000   -5.1962    0.0000 C   0  0  0  0  0  0  0  0  0  0  0  0
    9.7500   -3.8971    0.0000 C   0  0  0  0  0  0  0  0  0  0  0  0
    8.2500   -3.8971    0.0000 C   0  0  0  0  0  0  0  0  0  0  0  0
    7.5000   -2.5981    0.0000 C   0  0  0  0  0  0  0  0  0  0  0  0
    6.0000   -2.5981    0.0000 N   0  0  0  0  0  0  0  0  0  0  0  0
    5.2500   -1.2990    0.0000 C   0  0  0  0  0  0  0  0  0  0  0  0
    6.0000    0.0000    0.0000 O   0  0  0  0  0  0  0  0  0  0  0  0
    3.7500   -1.2990    0.0000 N   0  0  0  0  0  0  0  0  0  0  0  0
    3.0000    0.0000    0.0000 C   0  0  0  0  0  0  0  0  0  0  0  0
    1.5000    0.0000    0.0000 C   0  0  0  0  0  0  0  0  0  0  0  0
    0.7500   -1.2990    0.0000 C   0  0  0  0  0  0  0  0  0  0  0  0
   -0.7500   -1.2990    0.0000 C   0  0  0  0  0  0  0  0  0  0  0  0
   -1.5000    0.0000    0.0000 C   0  0  0  0  0  0  0  0  0  0  0  0
   -0.7500    1.2990    0.0000 C   0  0  0  0  0  0  0  0  0  0  0  0
    0.7500    1.2990    0.0000 C   0  0  0  0  0  0  0  0  0  0  0  0
  1  2  1  0
  2  3  1  0
  3  4  2  0
  3  5  1  0
  5  6  1  0
  6  7  1  0
  7  8  2  3
  8  9  1  0
  9 10  1  0
 10 11  1  0
 11 12  2  0
 11 13  1  0
 13 14  1  0
 14 15  1  0
 15 16  2  0
 16 17  1  0
 17 18  2  0
 18 19  1  0
 19 20  2  0
 20 15  1  0
M  END
>  <Title>  (538) 
idAASTgen14

$$$$

     RDKit          2D

  7  6  0  0  0  0  0  0  0  0999 V2000
    0.0000    0.0000    0.0000 C   0  0  0  0  0  0  0  0  0  0  0  0
    1.2990    0.7500    0.0000 C   0  0  0  0  0  0  0  0  0  0  0  0
    2.5981   -0.0000    0.0000 C   0  0  0  0  0  0  0  0  0  0  0  0
    3.8971    0.7500    0.0000 C   0  0  0  0  0  0  0  0  0  0  0  0
    5.1962   -0.0000    0.0000 C   0  0  0  0  0  0  0  0  0  0  0  0
    6.4952    0.7500    0.0000 C   0  0  0  0  0  0  0  0  0  0  0  0
    5.1962   -1.5000    0.0000 F   0  0  0  0  0  0  0  0  0  0  0  0
  1  2  2  0
  2  3  1  0
  3  4  1  0
  4  5  1  0
  5  6  1  0
  5  7  1  0
M  END
>  <Title>  (539) 
idAASUgen14

$$$$

     RDKit          2D

 13 14  0  0  0  0  0  0  0  0999 V2000
    3.0000    0.0000    0.0000 C   0  0  0  0  0  0  0  0  0  0  0  0
    1.5000    0.0000    0.0000 C   0  0  0  0  0  0  0  0  0  0  0  0
    0.7500   -1.2990    0.0000 N   0  0  0  0  0  0  0  0  0  0  0  0
   -0.7500   -1.2990    0.0000 N   0  0  0  0  0  0  0  0  0  0  0  0
   -1.5000    0.0000    0.0000 C   0  0  0  0  0  0  0  0  0  0  0  0
   -0.7500    1.2990    0.0000 N   0  0  0  0  0  0  0  0  0  0  0  0
    0.7500    1.2990    0.0000 N   0  0  0  0  0  0  0  0  0  0  0  0
    1.5000    2.5981    0.0000 C   0  0  0  0  0  0  0  0  0  0  0  0
    3.0000    2.5981    0.0000 C   0  0  0  0  0  0  0  0  0  0  0  0
    3.7500    3.8971    0.0000 C   0  0  0  0  0  0  0  0  0  0  0  0
    3.0000    5.1962    0.0000 C   0  0  0  0  0  0  0  0  0  0  0  0
    1.5000    5.1962    0.0000 C   0  0  0  0  0  0  0  0  0  0  0  0
    0.7500    3.8971    0.0000 C   0  0  0  0  0  0  0  0  0  0  0  0
  1  2  1  0
  2  3  2  0
  3  4  1  0
  4  5  1  0
  5  6  1  0
  6  7  1  0
  7  8  1  0
  8  9  2  0
  9 10  1  0
 10 11  1  0
 11 12  1  0
 12 13  2  0
  7  2  1  0
 13  8  1  0
M  END
>  <Title>  (540) 
idAASVgen14

$$$$

     RDKit          2D

  5  4  0  0  0  0  0  0  0  0999 V2000
    0.0000    0.0000    0.0000 C   0  0  0  0  0  0  0  0  0  0  0  0
    1.2990    0.7500    0.0000 C   0  0  0  0  0  0  0  0  0  0  0  0
    2.5981   -0.0000    0.0000 C   0  0  0  0  0  0  0  0  0  0  0  0
    3.8971    0.7500    0.0000 C   0  0  0  0  0  0  0  0  0  0  0  0
    5.1962   -0.0000    0.0000 C   0  0  0  0  0  0  0  0  0  0  0  0
  1  2  1  0
  2  3  1  0
  3  4  1  0
  4  5  1  0
M  END
>  <Title>  (541) 
idAASWgen14

$$$$

     RDKit          2D

 20 21  0  0  0  0  0  0  0  0999 V2000
    6.4664   -6.0335    0.0000 C   0  0  0  0  0  0  0  0  0  0  0  0
    5.4627   -7.1482    0.0000 C   0  0  0  0  0  0  0  0  0  0  0  0
    5.9262   -8.5748    0.0000 O   0  0  0  0  0  0  0  0  0  0  0  0
    3.9955   -6.8363    0.0000 N   0  0  0  0  0  0  0  0  0  0  0  0
    2.9918   -7.9510    0.0000 C   0  0  0  0  0  0  0  0  0  0  0  0
    1.5000   -7.7942    0.0000 C   0  0  0  0  0  0  0  0  0  0  0  0
    0.7500   -6.4952    0.0000 C   0  0  0  0  0  0  0  0  0  0  0  0
    1.5000   -5.1962    0.0000 C   0  0  0  0  0  0  0  0  0  0  0  0
    3.0000   -5.1962    0.0000 O   0  0  0  0  0  0  0  0  0  0  0  0
    0.7500   -3.8971    0.0000 C   0  0  0  0  0  0  0  0  0  0  0  0
    1.5000   -2.5981    0.0000 C   0  0  0  0  0  0  0  0  0  0  0  0
    0.7500   -1.2990    0.0000 C   0  0  0  0  0  0  0  0  0  0  0  0
    1.5000    0.0000    0.0000 N   0  0  0  0  0  0  0  0  0  0  0  0
    0.7500    1.2990    0.0000 N   0  0  0  0  0  0  0  0  0  0  0  0
   -0.7500    1.2990    0.0000 N   0  0  0  0  0  0  0  0  0  0  0  0
   -1.5000    0.0000    0.0000 N   0  0  0  0  0  0  0  0  0  0  0  0
   -0.7500   -1.2990    0.0000 N   0  0  0  0  0  0  0  0  0  0  0  0
    0.8899   -9.1645    0.0000 C   0  0  0  0  0  0  0  0  0  0  0  0
    2.0046  -10.1682    0.0000 C   0  0  0  0  0  0  0  0  0  0  0  0
    3.3037   -9.4182    0.0000 C   0  0  0  0  0  0  0  0  0  0  0  0
  1  2  1  0
  2  3  2  0
  2  4  1  0
  4  5  1  0
  5  6  2  0
  6  7  1  0
  7  8  1  0
  8  9  2  0
  8 10  1  0
 10 11  1  0
 11 12  1  0
 12 13  2  0
 13 14  1  0
 14 15  2  0
 15 16  1  0
 16 17  2  0
  6 18  1  0
 18 19  1  0
 19 20  1  0
 20  5  1  0
 17 12  1  0
M  END
>  <Title>  (542) 
idAASXgen14

$$$$

     RDKit          2D

 24 23  0  0  0  0  0  0  0  0999 V2000
    0.0000    0.0000    0.0000 C   0  0  0  0  0  0  0  0  0  0  0  0
   -0.0000   -1.5000    0.0000 C   0  0  0  0  0  0  0  0  0  0  0  0
   -0.0000   -3.0000    0.0000 C   0  0  0  0  0  0  0  0  0  0  0  0
   -0.0000   -4.5000    0.0000 C   0  0  0  0  0  0  0  0  0  0  0  0
   -0.0000   -6.0000    0.0000 C   0  0  0  0  0  0  0  0  0  0  0  0
   -0.0000   -7.5000    0.0000 C   0  0  0  0  0  0  0  0  0  0  0  0
   -0.0000   -9.0000    0.0000 C   0  0  0  0  0  0  0  0  0  0  0  0
   -0.0000  -10.5000    0.0000 C   0  0  0  0  0  0  0  0  0  0  0  0
   -0.0000  -12.0000    0.0000 C   0  0  0  0  0  0  0  0  0  0  0  0
   -0.0000  -13.5000    0.0000 C   0  0  0  0  0  0  0  0  0  0  0  0
   -0.0000  -15.0000    0.0000 C   0  0  0  0  0  0  0  0  0  0  0  0
   -0.0000  -16.5000    0.0000 C   0  0  0  0  0  0  0  0  0  0  0  0
   -0.0000  -18.0000    0.0000 C   0  0  0  0  0  0  0  0  0  0  0  0
   -0.0000  -19.5000    0.0000 C   0  0  0  0  0  0  0  0  0  0  0  0
   -0.0000  -21.0000    0.0000 C   0  0  0  0  0  0  0  0  0  0  0  0
   -0.0000  -22.5000    0.0000 C   0  0  0  0  0  0  0  0  0  0  0  0
   -0.0000  -24.0000    0.0000 C   0  0  0  0  0  0  0  0  0  0  0  0
   -0.0000  -25.5000    0.0000 C   0  0  0  0  0  0  0  0  0  0  0  0
   -0.0000  -27.0000    0.0000 C   0  0  0  0  0  0  0  0  0  0  0  0
   -0.0000  -28.5000    0.0000 C   0  0  0  0  0  0  0  0  0  0  0  0
   -0.0000  -30.0000    0.0000 C   0  0  0  0  0  0  0  0  0  0  0  0
   -0.0000  -31.5000    0.0000 C   0  0  0  0  0  0  0  0  0  0  0  0
   -0.0000  -33.0000    0.0000 C   0  0  0  0  0  0  0  0  0  0  0  0
    1.2990  -33.7500    0.0000 C   0  0  0  0  0  0  0  0  0  0  0  0
  1  2  3  0
  2  3  1  0
  3  4  3  0
  4  5  1  0
  5  6  3  0
  6  7  1  0
  7  8  3  0
  8  9  1  0
  9 10  3  0
 10 11  1  0
 11 12  3  0
 12 13  1  0
 13 14  3  0
 14 15  1  0
 15 16  3  0
 16 17  1  0
 17 18  3  0
 18 19  1  0
 19 20  3  0
 20 21  1  0
 21 22  3  0
 22 23  1  0
 23 24  1  0
M  END
>  <Title>  (543) 
idAASYgen14

$$$$

     RDKit          2D

  8  8  0  0  0  0  0  0  0  0999 V2000
    3.2286   -0.0000    0.0000 C   0  0  0  0  0  0  0  0  0  0  0  0
    1.7286    0.0000    0.0000 C   0  0  0  0  0  0  0  0  0  0  0  0
    1.0777    1.3515    0.0000 C   0  0  0  0  0  0  0  0  0  0  0  0
   -0.3846    1.6852    0.0000 C   0  0  0  0  0  0  0  0  0  0  0  0
   -1.5574    0.7500    0.0000 C   0  0  0  0  0  0  0  0  0  0  0  0
   -1.5574   -0.7500    0.0000 C   0  0  0  0  0  0  0  0  0  0  0  0
   -0.3846   -1.6852    0.0000 C   0  0  0  0  0  0  0  0  0  0  0  0
    1.0777   -1.3515    0.0000 C   0  0  0  0  0  0  0  0  0  0  0  0
  1  2  1  0
  2  3  1  0
  3  4  2  0
  4  5  1  0
  5  6  2  0
  6  7  1  0
  7  8  1  0
  8  2  1  0
M  END
>  <Title>  (544) 
idAASZgen14

$$$$

     RDKit          2D

107108  0  0  0  0  0  0  0  0999 V2000
   -2.1532   -1.0887    0.0000 C   0  0  0  0  0  0  0  0  0  0  0  0
   -2.4845    0.3743    0.0000 C   0  0  0  0  0  0  0  0  0  0  0  0
   -3.9569    0.0878    0.0000 C   0  0  0  0  0  0  0  0  0  0  0  0
   -5.4440   -0.1083    0.0000 C   0  0  0  0  0  0  0  0  0  0  0  0
   -6.9403   -0.2135    0.0000 C   0  0  0  0  0  0  0  0  0  0  0  0
   -8.4402   -0.2272    0.0000 C   0  0  0  0  0  0  0  0  0  0  0  0
   -9.9382   -0.1494    0.0000 C   0  0  0  0  0  0  0  0  0  0  0  0
  -11.4287    0.0195    0.0000 C   0  0  0  0  0  0  0  0  0  0  0  0
  -12.9061    0.2789    0.0000 C   0  0  0  0  0  0  0  0  0  0  0  0
  -14.3649    0.6280    0.0000 C   0  0  0  0  0  0  0  0  0  0  0  0
  -15.7997    1.0653    0.0000 C   0  0  0  0  0  0  0  0  0  0  0  0
  -17.2052    1.5893    0.0000 C   0  0  0  0  0  0  0  0  0  0  0  0
  -18.5761    2.1981    0.0000 C   0  0  0  0  0  0  0  0  0  0  0  0
  -19.9074    2.8892    0.0000 C   0  0  0  0  0  0  0  0  0  0  0  0
  -21.1941    3.6602    0.0000 C   0  0  0  0  0  0  0  0  0  0  0  0
  -22.4314    4.5083    0.0000 C   0  0  0  0  0  0  0  0  0  0  0  0
  -23.6146    5.4302    0.0000 C   0  0  0  0  0  0  0  0  0  0  0  0
  -24.7395    6.4225    0.0000 C   0  0  0  0  0  0  0  0  0  0  0  0
  -25.8018    7.4815    0.0000 C   0  0  0  0  0  0  0  0  0  0  0  0
  -26.7975    8.6034    0.0000 C   0  0  0  0  0  0  0  0  0  0  0  0
  -27.7230    9.7838    0.0000 C   0  0  0  0  0  0  0  0  0  0  0  0
  -28.5748   11.0185    0.0000 C   0  0  0  0  0  0  0  0  0  0  0  0
  -29.3498   12.3028    0.0000 C   0  0  0  0  0  0  0  0  0  0  0  0
  -30.0450   13.6320    0.0000 C   0  0  0  0  0  0  0  0  0  0  0  0
  -30.6579   15.0010    0.0000 C   0  0  0  0  0  0  0  0  0  0  0  0
  -31.1861   16.4049    0.0000 C   0  0  0  0  0  0  0  0  0  0  0  0
  -31.6279   17.8384    0.0000 C   0  0  0  0  0  0  0  0  0  0  0  0
  -31.9814   19.2962    0.0000 C   0  0  0  0  0  0  0  0  0  0  0  0
  -32.2453   20.7727    0.0000 C   0  0  0  0  0  0  0  0  0  0  0  0
  -32.4188   22.2627    0.0000 C   0  0  0  0  0  0  0  0  0  0  0  0
  -32.5011   23.7604    0.0000 C   0  0  0  0  0  0  0  0  0  0  0  0
  -32.4920   25.2604    0.0000 C   0  0  0  0  0  0  0  0  0  0  0  0
  -32.3914   26.7570    0.0000 C   0  0  0  0  0  0  0  0  0  0  0  0
  -32.1998   28.2447    0.0000 C   0  0  0  0  0  0  0  0  0  0  0  0
  -31.9178   29.7180    0.0000 C   0  0  0  0  0  0  0  0  0  0  0  0
  -31.5465   31.1713    0.0000 C   0  0  0  0  0  0  0  0  0  0  0  0
  -31.0874   32.5993    0.0000 C   0  0  0  0  0  0  0  0  0  0  0  0
  -30.5420   33.9967    0.0000 C   0  0  0  0  0  0  0  0  0  0  0  0
  -29.9124   35.3581    0.0000 C   0  0  0  0  0  0  0  0  0  0  0  0
  -29.2011   36.6787    0.0000 C   0  0  0  0  0  0  0  0  0  0  0  0
  -28.4105   37.9535    0.0000 C   0  0  0  0  0  0  0  0  0  0  0  0
  -27.5437   39.1777    0.0000 C   0  0  0  0  0  0  0  0  0  0  0  0
  -26.6039   40.3468    0.0000 C   0  0  0  0  0  0  0  0  0  0  0  0
  -25.5945   41.4564    0.0000 C   0  0  0  0  0  0  0  0  0  0  0  0
  -24.5194   42.5024    0.0000 C   0  0  0  0  0  0  0  0  0  0  0  0
  -23.3825   43.4809    0.0000 C   0  0  0  0  0  0  0  0  0  0  0  0
  -22.1881   44.3883    0.0000 C   0  0  0  0  0  0  0  0  0  0  0  0
  -20.9406   45.2211    0.0000 C   0  0  0  0  0  0  0  0  0  0  0  0
  -19.6446   45.9764    0.0000 C   0  0  0  0  0  0  0  0  0  0  0  0
  -18.3050   46.6513    0.0000 C   0  0  0  0  0  0  0  0  0  0  0  0
  -16.9267   47.2432    0.0000 C   0  0  0  0  0  0  0  0  0  0  0  0
  -15.5149   47.7500    0.0000 C   0  0  0  0  0  0  0  0  0  0  0  0
  -14.0749   48.1698    0.0000 C   0  0  0  0  0  0  0  0  0  0  0  0
  -12.6119   48.5011    0.0000 C   0  0  0  0  0  0  0  0  0  0  0  0
  -11.1315   48.7425    0.0000 C   0  0  0  0  0  0  0  0  0  0  0  0
   -9.6390   48.8932    0.0000 C   0  0  0  0  0  0  0  0  0  0  0  0
   -8.1402   48.9527    0.0000 C   0  0  0  0  0  0  0  0  0  0  0  0
   -6.6406   48.9207    0.0000 C   0  0  0  0  0  0  0  0  0  0  0  0
   -5.1456   48.7973    0.0000 C   0  0  0  0  0  0  0  0  0  0  0  0
   -3.6610   48.5830    0.0000 C   0  0  0  0  0  0  0  0  0  0  0  0
   -2.1922   48.2786    0.0000 C   0  0  0  0  0  0  0  0  0  0  0  0
   -0.7447   47.8852    0.0000 C   0  0  0  0  0  0  0  0  0  0  0  0
    0.6761   47.4043    0.0000 C   0  0  0  0  0  0  0  0  0  0  0  0
    2.0649   46.8377    0.0000 C   0  0  0  0  0  0  0  0  0  0  0  0
    3.4167   46.1874    0.0000 C   0  0  0  0  0  0  0  0  0  0  0  0
    4.7263   45.4560    0.0000 C   0  0  0  0  0  0  0  0  0  0  0  0
    5.9888   44.6461    0.0000 C   0  0  0  0  0  0  0  0  0  0  0  0
    7.1996   43.7607    0.0000 C   0  0  0  0  0  0  0  0  0  0  0  0
    8.3542   42.8032    0.0000 C   0  0  0  0  0  0  0  0  0  0  0  0
    9.4483   41.7770    0.0000 C   0  0  0  0  0  0  0  0  0  0  0  0
   10.4778   40.6861    0.0000 C   0  0  0  0  0  0  0  0  0  0  0  0
   11.4389   39.5344    0.0000 C   0  0  0  0  0  0  0  0  0  0  0  0
   12.3279   38.3263    0.0000 C   0  0  0  0  0  0  0  0  0  0  0  0
   13.1417   37.0662    0.0000 C   0  0  0  0  0  0  0  0  0  0  0  0
   13.8771   35.7588    0.0000 C   0  0  0  0  0  0  0  0  0  0  0  0
   14.5315   34.4091    0.0000 C   0  0  0  0  0  0  0  0  0  0  0  0
   15.1023   33.0220    0.0000 C   0  0  0  0  0  0  0  0  0  0  0  0
   15.5876   31.6026    0.0000 C   0  0  0  0  0  0  0  0  0  0  0  0
   15.9854   30.1563    0.0000 C   0  0  0  0  0  0  0  0  0  0  0  0
   16.2942   28.6885    0.0000 C   0  0  0  0  0  0  0  0  0  0  0  0
   16.5131   27.2045    0.0000 C   0  0  0  0  0  0  0  0  0  0  0  0
   16.6410   25.7100    0.0000 C   0  0  0  0  0  0  0  0  0  0  0  0
   16.6776   24.2104    0.0000 C   0  0  0  0  0  0  0  0  0  0  0  0
   16.6227   22.7114    0.0000 C   0  0  0  0  0  0  0  0  0  0  0  0
   16.4765   21.2186    0.0000 C   0  0  0  0  0  0  0  0  0  0  0  0
   16.2396   19.7374    0.0000 C   0  0  0  0  0  0  0  0  0  0  0  0
   15.9129   18.2734    0.0000 C   0  0  0  0  0  0  0  0  0  0  0  0
   15.4975   16.8321    0.0000 C   0  0  0  0  0  0  0  0  0  0  0  0
   14.9949   15.4188    0.0000 C   0  0  0  0  0  0  0  0  0  0  0  0
   14.4072   14.0387    0.0000 C   0  0  0  0  0  0  0  0  0  0  0  0
   13.7364   12.6970    0.0000 C   0  0  0  0  0  0  0  0  0  0  0  0
   12.9851   11.3988    0.0000 C   0  0  0  0  0  0  0  0  0  0  0  0
   12.1560   10.1487    0.0000 C   0  0  0  0  0  0  0  0  0  0  0  0
   11.2523    8.9515    0.0000 C   0  0  0  0  0  0  0  0  0  0  0  0
   10.2773    7.8117    0.0000 C   0  0  0  0  0  0  0  0  0  0  0  0
    9.2345    6.7334    0.0000 C   0  0  0  0  0  0  0  0  0  0  0  0
    8.1280    5.7206    0.0000 C   0  0  0  0  0  0  0  0  0  0  0  0
    6.9618    4.7772    0.0000 C   0  0  0  0  0  0  0  0  0  0  0  0
    5.7403    3.9067    0.0000 C   0  0  0  0  0  0  0  0  0  0  0  0
    4.4679    3.1123    0.0000 C   0  0  0  0  0  0  0  0  0  0  0  0
    3.1495    2.3969    0.0000 C   0  0  0  0  0  0  0  0  0  0  0  0
    1.7900    1.7632    0.0000 C   0  0  0  0  0  0  0  0  0  0  0  0
    0.3943    1.2135    0.0000 C   0  0  0  0  0  0  0  0  0  0  0  0
    1.2760    0.0000    0.0000 C   0  0  0  0  0  0  0  0  0  0  0  0
    0.3943   -1.2135    0.0000 C   0  0  0  0  0  0  0  0  0  0  0  0
   -1.0323   -0.7500    0.0000 C   0  0  0  0  0  0  0  0  0  0  0  0
   -1.0323    0.7500    0.0000 C   0  0  0  0  0  0  0  0  0  0  0  0
  1  2  1  0
  2  3  1  0
  3  4  1  0
  4  5  1  0
  5  6  1  0
  6  7  1  0
  7  8  1  0
  8  9  1  0
  9 10  1  0
 10 11  1  0
 11 12  1  0
 12 13  1  0
 13 14  1  0
 14 15  1  0
 15 16  1  0
 16 17  1  0
 17 18  1  0
 18 19  1  0
 19 20  1  0
 20 21  1  0
 21 22  1  0
 22 23  1  0
 23 24  1  0
 24 25  1  0
 25 26  1  0
 26 27  1  0
 27 28  1  0
 28 29  1  0
 29 30  1  0
 30 31  1  0
 31 32  1  0
 32 33  1  0
 33 34  1  0
 34 35  1  0
 35 36  1  0
 36 37  1  0
 37 38  1  0
 38 39  1  0
 39 40  1  0
 40 41  1  0
 41 42  1  0
 42 43  1  0
 43 44  1  0
 44 45  1  0
 45 46  1  0
 46 47  1  0
 47 48  1  0
 48 49  1  0
 49 50  1  0
 50 51  1  0
 51 52  1  0
 52 53  1  0
 53 54  1  0
 54 55  1  0
 55 56  1  0
 56 57  1  0
 57 58  1  0
 58 59  1  0
 59 60  1  0
 60 61  1  0
 61 62  1  0
 62 63  1  0
 63 64  1  0
 64 65  1  0
 65 66  1  0
 66 67  1  0
 67 68  1  0
 68 69  1  0
 69 70  1  0
 70 71  1  0
 71 72  1  0
 72 73  1  0
 73 74  1  0
 74 75  1  0
 75 76  1  0
 76 77  1  0
 77 78  1  0
 78 79  1  0
 79 80  1  0
 80 81  1  0
 81 82  1  0
 82 83  1  0
 83 84  1  0
 84 85  1  0
 85 86  1  0
 86 87  1  0
 87 88  1  0
 88 89  1  0
 89 90  1  0
 90 91  1  0
 91 92  1  0
 92 93  1  0
 93 94  1  0
 94 95  1  0
 95 96  1  0
 96 97  1  0
 97 98  1  0
 98 99  2  0
 99100  1  0
100101  2  0
101102  1  0
102103  2  0
103104  1  0
104105  2  0
105106  1  0
106107  2  0
107  2  1  0
107103  1  0
M  END
>  <Title>  (545) 
idAATAgen14

$$$$

     RDKit          2D

 17 16  0  0  0  0  0  0  0  0999 V2000
    0.0000    0.0000    0.0000 C   0  0  0  0  0  0  0  0  0  0  0  0
   -0.0000   -1.5000    0.0000 C   0  0  0  0  0  0  0  0  0  0  0  0
   -0.0000   -3.0000    0.0000 C   0  0  0  0  0  0  0  0  0  0  0  0
   -0.0000   -4.5000    0.0000 C   0  0  0  0  0  0  0  0  0  0  0  0
   -0.0000   -6.0000    0.0000 C   0  0  0  0  0  0  0  0  0  0  0  0
   -0.0000   -7.5000    0.0000 C   0  0  0  0  0  0  0  0  0  0  0  0
   -0.0000   -9.0000    0.0000 C   0  0  0  0  0  0  0  0  0  0  0  0
   -0.0000  -10.5000    0.0000 C   0  0  0  0  0  0  0  0  0  0  0  0
   -0.0000  -12.0000    0.0000 C   0  0  0  0  0  0  0  0  0  0  0  0
   -0.0000  -13.5000    0.0000 C   0  0  0  0  0  0  0  0  0  0  0  0
   -0.0000  -15.0000    0.0000 C   0  0  0  0  0  0  0  0  0  0  0  0
    1.2990  -15.7500    0.0000 C   0  0  0  0  0  0  0  0  0  0  0  0
    1.2990  -17.2500    0.0000 C   0  0  0  0  0  0  0  0  0  0  0  0
    2.5981  -18.0000    0.0000 N   0  0  0  0  0  0  0  0  0  0  0  0
    2.5981  -19.5000    0.0000 C   0  0  0  0  0  0  0  0  0  0  0  0
    3.8971  -20.2500    0.0000 C   0  0  0  0  0  0  0  0  0  0  0  0
    3.8971  -21.7500    0.0000 C   0  0  0  0  0  0  0  0  0  0  0  0
  1  2  3  0
  2  3  1  0
  3  4  3  0
  4  5  1  0
  5  6  3  0
  6  7  1  0
  7  8  3  0
  8  9  1  0
  9 10  3  0
 10 11  1  0
 11 12  1  0
 12 13  2  3
 13 14  1  0
 14 15  1  0
 15 16  1  0
 16 17  1  0
M  END
>  <Title>  (546) 
idAATBgen14

$$$$

     RDKit          2D

 53 59  0  0  0  0  0  0  0  0999 V2000
   -3.1476   -2.1380    0.0000 C   0  0  0  0  0  0  0  0  0  0  0  0
   -1.6852   -2.4718    0.0000 C   0  0  0  0  0  0  0  0  0  0  0  0
   -1.3515   -3.9342    0.0000 C   0  0  0  0  0  0  0  0  0  0  0  0
   -0.0000   -4.5850    0.0000 C   0  0  0  0  0  0  0  0  0  0  0  0
    1.3515   -3.9342    0.0000 C   0  0  0  0  0  0  0  0  0  0  0  0
    1.6852   -2.4718    0.0000 C   0  0  0  0  0  0  0  0  0  0  0  0
    3.1476   -2.1380    0.0000 C   0  0  0  0  0  0  0  0  0  0  0  0
    3.5898   -0.7046    0.0000 O   0  0  0  0  0  0  0  0  0  0  0  0
    4.1679   -3.2376    0.0000 N   0  0  0  0  0  0  0  0  0  0  0  0
    5.6303   -2.9038    0.0000 C   0  0  0  0  0  0  0  0  0  0  0  0
    6.2198   -1.5245    0.0000 N   0  0  0  0  0  0  0  0  0  0  0  0
    7.7138   -1.6590    0.0000 N   0  0  0  0  0  0  0  0  0  0  0  0
    8.0476   -3.1214    0.0000 N   0  0  0  0  0  0  0  0  0  0  0  0
    6.7599   -3.8907    0.0000 N   0  0  0  0  0  0  0  0  0  0  0  0
    6.6254   -5.3847    0.0000 C   0  0  0  0  0  0  0  0  0  0  0  0
    7.7550   -6.3716    0.0000 C   0  0  0  0  0  0  0  0  0  0  0  0
    7.1655   -7.7509    0.0000 C   0  0  0  0  0  0  0  0  0  0  0  0
    5.6715   -7.6164    0.0000 C   0  0  0  0  0  0  0  0  0  0  0  0
    4.6846   -8.7460    0.0000 O   0  0  0  0  0  0  0  0  0  0  0  0
    3.2129   -8.4561    0.0000 C   0  0  0  0  0  0  0  0  0  0  0  0
    2.7281   -7.0366    0.0000 O   0  0  0  0  0  0  0  0  0  0  0  0
    2.2260   -9.5857    0.0000 N   0  0  0  0  0  0  0  0  0  0  0  0
    0.7543   -9.2959    0.0000 C   0  0  0  0  0  0  0  0  0  0  0  0
    0.1237   -7.9348    0.0000 N   0  0  0  0  0  0  0  0  0  0  0  0
   -1.3655   -8.1139    0.0000 N   0  0  0  0  0  0  0  0  0  0  0  0
   -1.6554   -9.5856    0.0000 N   0  0  0  0  0  0  0  0  0  0  0  0
   -0.3453  -10.3161    0.0000 N   0  0  0  0  0  0  0  0  0  0  0  0
   -0.1662  -11.8054    0.0000 N   0  0  0  0  0  0  0  0  0  0  0  0
    1.2533  -12.2902    0.0000 C   0  0  0  0  0  0  0  0  0  0  0  0
    1.7593  -13.7023    0.0000 C   0  0  0  0  0  0  0  0  0  0  0  0
    0.9707  -14.9783    0.0000 C   0  0  0  0  0  0  0  0  0  0  0  0
    1.7783  -16.2424    0.0000 C   0  0  0  0  0  0  0  0  0  0  0  0
    3.2768  -16.1751    0.0000 O   0  0  0  0  0  0  0  0  0  0  0  0
    1.0873  -17.5738    0.0000 N   0  0  0  0  0  0  0  0  0  0  0  0
    1.8948  -18.8378    0.0000 C   0  0  0  0  0  0  0  0  0  0  0  0
    1.2039  -20.1692    0.0000 N   0  0  0  0  0  0  0  0  0  0  0  0
    2.0114  -21.4333    0.0000 N   0  0  0  0  0  0  0  0  0  0  0  0
    3.5099  -21.3660    0.0000 N   0  0  0  0  0  0  0  0  0  0  0  0
    4.2009  -20.0346    0.0000 N   0  0  0  0  0  0  0  0  0  0  0  0
    3.3933  -18.7705    0.0000 N   0  0  0  0  0  0  0  0  0  0  0  0
   -0.5185  -15.1574    0.0000 C   0  0  0  0  0  0  0  0  0  0  0  0
   -1.0033  -16.5769    0.0000 O   0  0  0  0  0  0  0  0  0  0  0  0
   -1.5871  -14.1047    0.0000 N   0  0  0  0  0  0  0  0  0  0  0  0
   -1.4303  -12.6129    0.0000 C   0  0  0  0  0  0  0  0  0  0  0  0
   -2.7063  -11.8244    0.0000 O   0  0  0  0  0  0  0  0  0  0  0  0
    5.3378   -6.1540    0.0000 C   0  0  0  0  0  0  0  0  0  0  0  0
    3.9585   -5.5645    0.0000 O   0  0  0  0  0  0  0  0  0  0  0  0
    0.7500   -1.2990    0.0000 C   0  0  0  0  0  0  0  0  0  0  0  0
    1.5000    0.0000    0.0000 C   0  0  0  0  0  0  0  0  0  0  0  0
    0.7500    1.2990    0.0000 C   0  0  0  0  0  0  0  0  0  0  0  0
   -0.7500    1.2990    0.0000 C   0  0  0  0  0  0  0  0  0  0  0  0
   -1.5000    0.0000    0.0000 C   0  0  0  0  0  0  0  0  0  0  0  0
   -0.7500   -1.2990    0.0000 C   0  0  0  0  0  0  0  0  0  0  0  0
  1  2  1  0
  2  3  1  0
  3  4  1  0
  4  5  1  0
  5  6  1  0
  6  7  1  0
  7  8  2  0
  7  9  1  0
  9 10  1  0
 10 11  2  0
 11 12  1  0
 12 13  2  0
 13 14  1  0
 14 15  1  0
 15 16  2  0
 16 17  1  0
 17 18  2  0
 18 19  1  0
 19 20  1  0
 20 21  2  0
 20 22  1  0
 22 23  1  0
 23 24  2  0
 24 25  1  0
 25 26  2  0
 26 27  1  0
 27 28  1  0
 28 29  1  0
 29 30  1  0
 30 31  1  0
 31 32  1  0
 32 33  2  0
 32 34  1  0
 34 35  1  0
 35 36  2  0
 36 37  1  0
 37 38  2  0
 38 39  1  0
 39 40  2  0
 31 41  1  0
 41 42  2  0
 41 43  1  0
 43 44  1  0
 44 45  2  0
 18 46  1  0
 46 47  2  0
  6 48  1  0
 48 49  2  0
 49 50  1  0
 50 51  2  0
 51 52  1  0
 52 53  2  0
 53  2  1  0
 14 10  1  0
 46 15  1  0
 53 48  1  0
 27 23  1  0
 44 28  1  0
 40 35  1  0
M  END
>  <Title>  (547) 
idAATCgen14

$$$$

     RDKit          2D

 12 12  0  0  0  0  0  0  0  0999 V2000
    6.0000   -2.5981    0.0000 C   0  0  0  0  0  0  0  0  0  0  0  0
    5.2500   -1.2990    0.0000 C   0  0  0  0  0  0  0  0  0  0  0  0
    6.0000    0.0000    0.0000 C   0  0  0  0  0  0  0  0  0  0  0  0
    7.5000   -0.0000    0.0000 O   0  0  0  0  0  0  0  0  0  0  0  0
    3.7500   -1.2990    0.0000 N   0  0  0  0  0  0  0  0  0  0  0  0
    3.0000    0.0000    0.0000 C   0  0  0  0  0  0  0  0  0  0  0  0
    1.5000    0.0000    0.0000 C   0  0  0  0  0  0  0  0  0  0  0  0
    0.7500   -1.2990    0.0000 C   0  0  0  0  0  0  0  0  0  0  0  0
   -0.7500   -1.2990    0.0000 C   0  0  0  0  0  0  0  0  0  0  0  0
   -1.5000    0.0000    0.0000 C   0  0  0  0  0  0  0  0  0  0  0  0
   -0.7500    1.2990    0.0000 N   0  0  0  0  0  0  0  0  0  0  0  0
    0.7500    1.2990    0.0000 C   0  0  0  0  0  0  0  0  0  0  0  0
  1  2  1  0
  2  3  1  0
  3  4  1  0
  2  5  1  0
  5  6  1  0
  6  7  1  0
  7  8  2  0
  8  9  1  0
  9 10  2  0
 10 11  1  0
 11 12  2  0
 12  7  1  0
M  END
>  <Title>  (548) 
idAATDgen14

$$$$

     RDKit          2D

 12 12  0  0  0  0  0  0  0  0999 V2000
    7.5000    2.5981    0.0000 C   0  0  0  0  0  0  0  0  0  0  0  0
    6.0000    2.5981    0.0000 C   0  0  0  0  0  0  0  0  0  0  0  0
    5.2500    1.2990    0.0000 C   0  0  0  0  0  0  0  0  0  0  0  0
    3.7500    1.2990    0.0000 C   0  0  0  0  0  0  0  0  0  0  0  0
    3.0000    0.0000    0.0000 C   0  0  0  0  0  0  0  0  0  0  0  0
    3.7500   -1.2990    0.0000 C   0  0  0  0  0  0  0  0  0  0  0  0
    1.5000    0.0000    0.0000 C   0  0  0  0  0  0  0  0  0  0  0  0
    0.7500   -1.2990    0.0000 C   0  0  0  0  0  0  0  0  0  0  0  0
   -0.7500   -1.2990    0.0000 C   0  0  0  0  0  0  0  0  0  0  0  0
   -1.5000    0.0000    0.0000 C   0  0  0  0  0  0  0  0  0  0  0  0
   -0.7500    1.2990    0.0000 N   0  0  0  0  0  0  0  0  0  0  0  0
    0.7500    1.2990    0.0000 C   0  0  0  0  0  0  0  0  0  0  0  0
  1  2  2  0
  2  3  1  0
  3  4  1  0
  4  5  1  0
  5  6  1  0
  5  7  1  0
  7  8  2  0
  8  9  1  0
  9 10  2  0
 10 11  1  0
 11 12  2  0
 12  7  1  0
M  END
>  <Title>  (549) 
idAATEgen14

$$$$

     RDKit          2D

 38 42  0  0  0  0  0  0  0  0999 V2000
   -3.1981   -1.5132    0.0000 C   0  0  0  0  0  0  0  0  0  0  0  0
   -1.8991   -2.2632    0.0000 C   0  0  0  0  0  0  0  0  0  0  0  0
   -2.1595   -3.7404    0.0000 C   0  0  0  0  0  0  0  0  0  0  0  0
   -1.4095   -5.0395    0.0000 C   0  0  0  0  0  0  0  0  0  0  0  0
   -0.0000   -5.5525    0.0000 C   0  0  0  0  0  0  0  0  0  0  0  0
    1.4095   -5.0395    0.0000 C   0  0  0  0  0  0  0  0  0  0  0  0
    2.3737   -6.1885    0.0000 C   0  0  0  0  0  0  0  0  0  0  0  0
    3.8509   -5.9281    0.0000 O   0  0  0  0  0  0  0  0  0  0  0  0
    1.8607   -7.5981    0.0000 N   0  0  0  0  0  0  0  0  0  0  0  0
    2.8249   -8.7471    0.0000 C   0  0  0  0  0  0  0  0  0  0  0  0
    4.3212   -8.6425    0.0000 N   0  0  0  0  0  0  0  0  0  0  0  0
    4.8831  -10.0333    0.0000 N   0  0  0  0  0  0  0  0  0  0  0  0
    3.7341  -10.9975    0.0000 N   0  0  0  0  0  0  0  0  0  0  0  0
    2.4620  -10.2026    0.0000 N   0  0  0  0  0  0  0  0  0  0  0  0
    1.0712  -10.7645    0.0000 N   0  0  0  0  0  0  0  0  0  0  0  0
    0.7083  -12.2199    0.0000 C   0  0  0  0  0  0  0  0  0  0  0  0
   -0.7880  -12.3246    0.0000 C   0  0  0  0  0  0  0  0  0  0  0  0
   -1.3499  -10.9338    0.0000 N   0  0  0  0  0  0  0  0  0  0  0  0
   -2.8054  -10.5709    0.0000 C   0  0  0  0  0  0  0  0  0  0  0  0
   -3.8474  -11.6499    0.0000 O   0  0  0  0  0  0  0  0  0  0  0  0
   -3.2188   -9.1290    0.0000 N   0  0  0  0  0  0  0  0  0  0  0  0
   -4.6743   -8.7661    0.0000 C   0  0  0  0  0  0  0  0  0  0  0  0
   -5.0877   -7.3242    0.0000 N   0  0  0  0  0  0  0  0  0  0  0  0
   -6.5432   -6.9614    0.0000 N   0  0  0  0  0  0  0  0  0  0  0  0
   -7.5852   -8.0404    0.0000 N   0  0  0  0  0  0  0  0  0  0  0  0
   -7.1717   -9.4823    0.0000 N   0  0  0  0  0  0  0  0  0  0  0  0
   -5.7163   -9.8451    0.0000 N   0  0  0  0  0  0  0  0  0  0  0  0
   -0.2009   -9.9696    0.0000 C   0  0  0  0  0  0  0  0  0  0  0  0
   -0.3055   -8.4733    0.0000 O   0  0  0  0  0  0  0  0  0  0  0  0
    2.1595   -3.7404    0.0000 C   0  0  0  0  0  0  0  0  0  0  0  0
    3.6368   -4.0009    0.0000 O   0  0  0  0  0  0  0  0  0  0  0  0
    1.8991   -2.2632    0.0000 O   0  0  0  0  0  0  0  0  0  0  0  0
    0.7500   -1.2990    0.0000 C   0  0  0  0  0  0  0  0  0  0  0  0
    1.5000    0.0000    0.0000 C   0  0  0  0  0  0  0  0  0  0  0  0
    0.7500    1.2990    0.0000 C   0  0  0  0  0  0  0  0  0  0  0  0
   -0.7500    1.2990    0.0000 C   0  0  0  0  0  0  0  0  0  0  0  0
   -1.5000    0.0000    0.0000 C   0  0  0  0  0  0  0  0  0  0  0  0
   -0.7500   -1.2990    0.0000 C   0  0  0  0  0  0  0  0  0  0  0  0
  1  2  1  0
  2  3  1  0
  3  4  2  0
  4  5  1  0
  5  6  1  0
  6  7  1  0
  7  8  2  0
  7  9  1  0
  9 10  1  0
 10 11  2  0
 11 12  1  0
 12 13  2  0
 13 14  1  0
 14 15  1  0
 15 16  1  0
 16 17  1  0
 17 18  1  0
 18 19  1  0
 19 20  2  0
 19 21  1  0
 21 22  1  0
 22 23  2  0
 23 24  1  0
 24 25  2  0
 25 26  1  0
 26 27  2  0
 18 28  1  0
 28 29  2  0
  6 30  1  0
 30 31  2  0
 30 32  1  0
 32 33  1  0
 33 34  2  0
 34 35  1  0
 35 36  2  0
 36 37  1  0
 37 38  2  0
 38  2  1  0
 14 10  1  0
 28 15  1  0
 38 33  1  0
 27 22  1  0
M  END
>  <Title>  (550) 
idAATFgen14

$$$$

     RDKit          2D

 98 99  0  0  0  0  0  0  0  0999 V2000
   -2.3024    0.6974    0.0000 C   0  0  0  0  0  0  0  0  0  0  0  0
   -1.8208    2.1180    0.0000 C   0  0  0  0  0  0  0  0  0  0  0  0
   -3.2242    2.6478    0.0000 C   0  0  0  0  0  0  0  0  0  0  0  0
   -4.5881    3.2722    0.0000 C   0  0  0  0  0  0  0  0  0  0  0  0
   -5.9062    3.9881    0.0000 C   0  0  0  0  0  0  0  0  0  0  0  0
   -7.1724    4.7924    0.0000 C   0  0  0  0  0  0  0  0  0  0  0  0
   -8.3807    5.6811    0.0000 C   0  0  0  0  0  0  0  0  0  0  0  0
   -9.5256    6.6503    0.0000 C   0  0  0  0  0  0  0  0  0  0  0  0
  -10.6016    7.6953    0.0000 C   0  0  0  0  0  0  0  0  0  0  0  0
  -11.6039    8.8113    0.0000 C   0  0  0  0  0  0  0  0  0  0  0  0
  -12.5276    9.9931    0.0000 C   0  0  0  0  0  0  0  0  0  0  0  0
  -13.3686   11.2352    0.0000 C   0  0  0  0  0  0  0  0  0  0  0  0
  -14.1228   12.5318    0.0000 C   0  0  0  0  0  0  0  0  0  0  0  0
  -14.7868   13.8769    0.0000 C   0  0  0  0  0  0  0  0  0  0  0  0
  -15.3574   15.2641    0.0000 C   0  0  0  0  0  0  0  0  0  0  0  0
  -15.8321   16.6870    0.0000 C   0  0  0  0  0  0  0  0  0  0  0  0
  -16.2085   18.1390    0.0000 C   0  0  0  0  0  0  0  0  0  0  0  0
  -16.4850   19.6133    0.0000 C   0  0  0  0  0  0  0  0  0  0  0  0
  -16.6602   21.1030    0.0000 C   0  0  0  0  0  0  0  0  0  0  0  0
  -16.7333   22.6013    0.0000 C   0  0  0  0  0  0  0  0  0  0  0  0
  -16.7041   24.1010    0.0000 C   0  0  0  0  0  0  0  0  0  0  0  0
  -16.5725   25.5952    0.0000 C   0  0  0  0  0  0  0  0  0  0  0  0
  -16.3393   27.0770    0.0000 C   0  0  0  0  0  0  0  0  0  0  0  0
  -16.0055   28.5393    0.0000 C   0  0  0  0  0  0  0  0  0  0  0  0
  -15.5727   29.9755    0.0000 C   0  0  0  0  0  0  0  0  0  0  0  0
  -15.0429   31.3789    0.0000 C   0  0  0  0  0  0  0  0  0  0  0  0
  -14.4186   32.7428    0.0000 C   0  0  0  0  0  0  0  0  0  0  0  0
  -13.7026   34.0609    0.0000 C   0  0  0  0  0  0  0  0  0  0  0  0
  -12.8984   35.3271    0.0000 C   0  0  0  0  0  0  0  0  0  0  0  0
  -12.0096   36.5354    0.0000 C   0  0  0  0  0  0  0  0  0  0  0  0
  -11.0405   37.6803    0.0000 C   0  0  0  0  0  0  0  0  0  0  0  0
   -9.9955   38.7563    0.0000 C   0  0  0  0  0  0  0  0  0  0  0  0
   -8.8794   39.7586    0.0000 C   0  0  0  0  0  0  0  0  0  0  0  0
   -7.6976   40.6823    0.0000 C   0  0  0  0  0  0  0  0  0  0  0  0
   -6.4555   41.5233    0.0000 C   0  0  0  0  0  0  0  0  0  0  0  0
   -5.1589   42.2775    0.0000 C   0  0  0  0  0  0  0  0  0  0  0  0
   -3.8139   42.9415    0.0000 C   0  0  0  0  0  0  0  0  0  0  0  0
   -2.4267   43.5121    0.0000 C   0  0  0  0  0  0  0  0  0  0  0  0
   -1.0038   43.9868    0.0000 C   0  0  0  0  0  0  0  0  0  0  0  0
    0.4482   44.3632    0.0000 C   0  0  0  0  0  0  0  0  0  0  0  0
    1.9225   44.6397    0.0000 C   0  0  0  0  0  0  0  0  0  0  0  0
    3.4123   44.8149    0.0000 C   0  0  0  0  0  0  0  0  0  0  0  0
    4.9105   44.8880    0.0000 C   0  0  0  0  0  0  0  0  0  0  0  0
    6.4102   44.8588    0.0000 C   0  0  0  0  0  0  0  0  0  0  0  0
    7.9044   44.7272    0.0000 C   0  0  0  0  0  0  0  0  0  0  0  0
    9.3862   44.4940    0.0000 C   0  0  0  0  0  0  0  0  0  0  0  0
   10.8486   44.1602    0.0000 C   0  0  0  0  0  0  0  0  0  0  0  0
   12.2848   43.7274    0.0000 C   0  0  0  0  0  0  0  0  0  0  0  0
   13.6881   43.1976    0.0000 C   0  0  0  0  0  0  0  0  0  0  0  0
   15.0520   42.5733    0.0000 C   0  0  0  0  0  0  0  0  0  0  0  0
   16.3701   41.8573    0.0000 C   0  0  0  0  0  0  0  0  0  0  0  0
   17.6363   41.0531    0.0000 C   0  0  0  0  0  0  0  0  0  0  0  0
   18.8446   40.1643    0.0000 C   0  0  0  0  0  0  0  0  0  0  0  0
   19.9895   39.1952    0.0000 C   0  0  0  0  0  0  0  0  0  0  0  0
   21.0656   38.1502    0.0000 C   0  0  0  0  0  0  0  0  0  0  0  0
   22.0678   37.0341    0.0000 C   0  0  0  0  0  0  0  0  0  0  0  0
   22.9916   35.8523    0.0000 C   0  0  0  0  0  0  0  0  0  0  0  0
   23.8325   34.6102    0.0000 C   0  0  0  0  0  0  0  0  0  0  0  0
   24.5867   33.3136    0.0000 C   0  0  0  0  0  0  0  0  0  0  0  0
   25.2507   31.9686    0.0000 C   0  0  0  0  0  0  0  0  0  0  0  0
   25.8214   30.5814    0.0000 C   0  0  0  0  0  0  0  0  0  0  0  0
   26.2960   29.1585    0.0000 C   0  0  0  0  0  0  0  0  0  0  0  0
   26.6724   27.7065    0.0000 C   0  0  0  0  0  0  0  0  0  0  0  0
   26.9489   26.2322    0.0000 C   0  0  0  0  0  0  0  0  0  0  0  0
   27.1241   24.7424    0.0000 C   0  0  0  0  0  0  0  0  0  0  0  0
   27.1973   23.2442    0.0000 C   0  0  0  0  0  0  0  0  0  0  0  0
   27.1680   21.7445    0.0000 C   0  0  0  0  0  0  0  0  0  0  0  0
   27.0365   20.2503    0.0000 C   0  0  0  0  0  0  0  0  0  0  0  0
   26.8032   18.7685    0.0000 C   0  0  0  0  0  0  0  0  0  0  0  0
   26.4695   17.3061    0.0000 C   0  0  0  0  0  0  0  0  0  0  0  0
   26.0367   15.8699    0.0000 C   0  0  0  0  0  0  0  0  0  0  0  0
   25.5069   14.4666    0.0000 C   0  0  0  0  0  0  0  0  0  0  0  0
   24.8825   13.1027    0.0000 C   0  0  0  0  0  0  0  0  0  0  0  0
   24.1666   11.7846    0.0000 C   0  0  0  0  0  0  0  0  0  0  0  0
   23.3623   10.5184    0.0000 C   0  0  0  0  0  0  0  0  0  0  0  0
   22.4736    9.3101    0.0000 C   0  0  0  0  0  0  0  0  0  0  0  0
   21.5044    8.1652    0.0000 C   0  0  0  0  0  0  0  0  0  0  0  0
   20.4594    7.0891    0.0000 C   0  0  0  0  0  0  0  0  0  0  0  0
   19.3434    6.0869    0.0000 C   0  0  0  0  0  0  0  0  0  0  0  0
   18.1616    5.1631    0.0000 C   0  0  0  0  0  0  0  0  0  0  0  0
   16.9195    4.3222    0.0000 C   0  0  0  0  0  0  0  0  0  0  0  0
   15.6229    3.5680    0.0000 C   0  0  0  0  0  0  0  0  0  0  0  0
   14.2778    2.9040    0.0000 C   0  0  0  0  0  0  0  0  0  0  0  0
   12.8906    2.3333    0.0000 C   0  0  0  0  0  0  0  0  0  0  0  0
   11.4677    1.8587    0.0000 C   0  0  0  0  0  0  0  0  0  0  0  0
   10.0157    1.4823    0.0000 C   0  0  0  0  0  0  0  0  0  0  0  0
    8.5414    1.2058    0.0000 C   0  0  0  0  0  0  0  0  0  0  0  0
    7.0517    1.0306    0.0000 C   0  0  0  0  0  0  0  0  0  0  0  0
    5.5534    0.9574    0.0000 C   0  0  0  0  0  0  0  0  0  0  0  0
    4.0537    0.9867    0.0000 C   0  0  0  0  0  0  0  0  0  0  0  0
    2.5595    1.1182    0.0000 C   0  0  0  0  0  0  0  0  0  0  0  0
    1.0777    1.3515    0.0000 C   0  0  0  0  0  0  0  0  0  0  0  0
    1.7286    0.0000    0.0000 C   0  0  0  0  0  0  0  0  0  0  0  0
    1.0777   -1.3515    0.0000 C   0  0  0  0  0  0  0  0  0  0  0  0
   -0.3846   -1.6852    0.0000 C   0  0  0  0  0  0  0  0  0  0  0  0
   -1.5574   -0.7500    0.0000 C   0  0  0  0  0  0  0  0  0  0  0  0
   -1.5574    0.7500    0.0000 C   0  0  0  0  0  0  0  0  0  0  0  0
   -0.3846    1.6852    0.0000 C   0  0  0  0  0  0  0  0  0  0  0  0
  1  2  1  0
  2  3  1  0
  3  4  1  0
  4  5  1  0
  5  6  1  0
  6  7  1  0
  7  8  1  0
  8  9  1  0
  9 10  1  0
 10 11  1  0
 11 12  1  0
 12 13  1  0
 13 14  1  0
 14 15  1  0
 15 16  1  0
 16 17  1  0
 17 18  1  0
 18 19  1  0
 19 20  1  0
 20 21  1  0
 21 22  1  0
 22 23  1  0
 23 24  1  0
 24 25  1  0
 25 26  1  0
 26 27  1  0
 27 28  1  0
 28 29  1  0
 29 30  1  0
 30 31  1  0
 31 32  1  0
 32 33  1  0
 33 34  1  0
 34 35  1  0
 35 36  1  0
 36 37  1  0
 37 38  1  0
 38 39  1  0
 39 40  1  0
 40 41  1  0
 41 42  1  0
 42 43  1  0
 43 44  1  0
 44 45  1  0
 45 46  1  0
 46 47  1  0
 47 48  1  0
 48 49  1  0
 49 50  1  0
 50 51  1  0
 51 52  1  0
 52 53  1  0
 53 54  1  0
 54 55  1  0
 55 56  1  0
 56 57  1  0
 57 58  1  0
 58 59  1  0
 59 60  1  0
 60 61  1  0
 61 62  1  0
 62 63  1  0
 63 64  1  0
 64 65  1  0
 65 66  1  0
 66 67  1  0
 67 68  1  0
 68 69  1  0
 69 70  1  0
 70 71  1  0
 71 72  1  0
 72 73  1  0
 73 74  1  0
 74 75  1  0
 75 76  1  0
 76 77  1  0
 77 78  1  0
 78 79  1  0
 79 80  1  0
 80 81  1  0
 81 82  1  0
 82 83  1  0
 83 84  1  0
 84 85  1  0
 85 86  1  0
 86 87  1  0
 87 88  1  0
 88 89  1  0
 89 90  1  0
 90 91  1  0
 91 92  1  0
 92 93  1  0
 93 94  1  0
 94 95  1  0
 95 96  2  0
 96 97  1  0
 97 98  2  0
 98  2  1  0
 98 92  1  0
M  END
>  <Title>  (551) 
idAATGgen14

$$$$

     RDKit          2D

 10  9  0  0  0  0  0  0  0  0999 V2000
    0.0000    0.0000    0.0000 C   0  0  0  0  0  0  0  0  0  0  0  0
    1.2990    0.7500    0.0000 C   0  0  0  0  0  0  0  0  0  0  0  0
    2.5981   -0.0000    0.0000 C   0  0  0  0  0  0  0  0  0  0  0  0
    3.8971    0.7500    0.0000 C   0  0  0  0  0  0  0  0  0  0  0  0
    5.1962   -0.0000    0.0000 C   0  0  0  0  0  0  0  0  0  0  0  0
    3.8971    2.2500    0.0000 C   0  0  0  0  0  0  0  0  0  0  0  0
    5.1962    3.0000    0.0000 C   0  0  0  0  0  0  0  0  0  0  0  0
    5.1962    4.5000    0.0000 C   0  0  0  0  0  0  0  0  0  0  0  0
    6.4952    5.2500    0.0000 C   0  0  0  0  0  0  0  0  0  0  0  0
    3.8971    5.2500    0.0000 C   0  0  0  0  0  0  0  0  0  0  0  0
  1  2  1  0
  2  3  1  0
  3  4  1  0
  4  5  1  0
  4  6  1  0
  6  7  1  0
  7  8  1  0
  8  9  1  0
  8 10  1  0
M  END
>  <Title>  (552) 
idAATHgen14

$$$$

     RDKit          2D

 34 38  0  0  0  0  0  0  0  0999 V2000
   -3.0000   -2.5981    0.0000 C   0  0  0  0  0  0  0  0  0  0  0  0
   -1.5000   -2.5981    0.0000 C   0  0  0  0  0  0  0  0  0  0  0  0
   -0.7500   -3.8971    0.0000 C   0  0  0  0  0  0  0  0  0  0  0  0
    0.7500   -3.8971    0.0000 C   0  0  0  0  0  0  0  0  0  0  0  0
    1.5000   -2.5981    0.0000 C   0  0  0  0  0  0  0  0  0  0  0  0
    3.0000   -2.5981    0.0000 C   0  0  0  0  0  0  0  0  0  0  0  0
    3.7500   -1.2990    0.0000 O   0  0  0  0  0  0  0  0  0  0  0  0
    3.7500   -3.8971    0.0000 N   0  0  0  0  0  0  0  0  0  0  0  0
    5.2500   -3.8971    0.0000 C   0  0  0  0  0  0  0  0  0  0  0  0
    6.1317   -2.6836    0.0000 N   0  0  0  0  0  0  0  0  0  0  0  0
    7.5583   -3.1471    0.0000 N   0  0  0  0  0  0  0  0  0  0  0  0
    7.5583   -4.6471    0.0000 N   0  0  0  0  0  0  0  0  0  0  0  0
    6.1317   -5.1106    0.0000 N   0  0  0  0  0  0  0  0  0  0  0  0
    5.6682   -6.5372    0.0000 C   0  0  0  0  0  0  0  0  0  0  0  0
    6.5498   -7.7508    0.0000 C   0  0  0  0  0  0  0  0  0  0  0  0
    5.6682   -8.9643    0.0000 C   0  0  0  0  0  0  0  0  0  0  0  0
    4.2416   -8.5008    0.0000 C   0  0  0  0  0  0  0  0  0  0  0  0
    3.0280   -9.3824    0.0000 C   0  0  0  0  0  0  0  0  0  0  0  0
    3.1848  -10.8742    0.0000 O   0  0  0  0  0  0  0  0  0  0  0  0
    1.6577   -8.7723    0.0000 N   0  0  0  0  0  0  0  0  0  0  0  0
    0.4442   -9.6540    0.0000 C   0  0  0  0  0  0  0  0  0  0  0  0
   -0.9261   -9.0439    0.0000 N   0  0  0  0  0  0  0  0  0  0  0  0
   -2.1396   -9.9256    0.0000 N   0  0  0  0  0  0  0  0  0  0  0  0
   -1.9829  -11.4174    0.0000 N   0  0  0  0  0  0  0  0  0  0  0  0
   -0.6125  -12.0275    0.0000 N   0  0  0  0  0  0  0  0  0  0  0  0
    0.6010  -11.1458    0.0000 N   0  0  0  0  0  0  0  0  0  0  0  0
    4.2416   -7.0008    0.0000 C   0  0  0  0  0  0  0  0  0  0  0  0
    3.0280   -6.1191    0.0000 O   0  0  0  0  0  0  0  0  0  0  0  0
    0.7500   -1.2990    0.0000 C   0  0  0  0  0  0  0  0  0  0  0  0
    1.5000    0.0000    0.0000 C   0  0  0  0  0  0  0  0  0  0  0  0
    0.7500    1.2990    0.0000 C   0  0  0  0  0  0  0  0  0  0  0  0
   -0.7500    1.2990    0.0000 C   0  0  0  0  0  0  0  0  0  0  0  0
   -1.5000    0.0000    0.0000 C   0  0  0  0  0  0  0  0  0  0  0  0
   -0.7500   -1.2990    0.0000 C   0  0  0  0  0  0  0  0  0  0  0  0
  1  2  1  0
  2  3  1  0
  3  4  2  0
  4  5  1  0
  5  6  1  0
  6  7  2  0
  6  8  1  0
  8  9  1  0
  9 10  2  0
 10 11  1  0
 11 12  2  0
 12 13  1  0
 13 14  1  0
 14 15  2  0
 15 16  1  0
 16 17  2  0
 17 18  1  0
 18 19  2  0
 18 20  1  0
 20 21  1  0
 21 22  2  0
 22 23  1  0
 23 24  2  0
 24 25  1  0
 25 26  2  0
 17 27  1  0
 27 28  2  0
  5 29  1  0
 29 30  2  0
 30 31  1  0
 31 32  2  0
 32 33  1  0
 33 34  2  0
 34  2  1  0
 13  9  1  0
 27 14  1  0
 34 29  1  0
 26 21  1  0
M  END
>  <Title>  (553) 
idAATIgen14

$$$$

     RDKit          2D

 34 38  0  0  0  0  0  0  0  0999 V2000
   -3.0000   -2.5981    0.0000 C   0  0  0  0  0  0  0  0  0  0  0  0
   -1.5000   -2.5981    0.0000 C   0  0  0  0  0  0  0  0  0  0  0  0
   -0.7500   -3.8971    0.0000 C   0  0  0  0  0  0  0  0  0  0  0  0
    0.7500   -3.8971    0.0000 C   0  0  0  0  0  0  0  0  0  0  0  0
    1.5000   -2.5981    0.0000 C   0  0  0  0  0  0  0  0  0  0  0  0
    3.0000   -2.5981    0.0000 C   0  0  0  0  0  0  0  0  0  0  0  0
    3.7500   -1.2990    0.0000 O   0  0  0  0  0  0  0  0  0  0  0  0
    3.7500   -3.8971    0.0000 N   0  0  0  0  0  0  0  0  0  0  0  0
    5.2500   -3.8971    0.0000 C   0  0  0  0  0  0  0  0  0  0  0  0
    6.1317   -2.6836    0.0000 N   0  0  0  0  0  0  0  0  0  0  0  0
    7.5583   -3.1471    0.0000 N   0  0  0  0  0  0  0  0  0  0  0  0
    7.5583   -4.6471    0.0000 N   0  0  0  0  0  0  0  0  0  0  0  0
    6.1317   -5.1106    0.0000 N   0  0  0  0  0  0  0  0  0  0  0  0
    5.6682   -6.5372    0.0000 N   0  0  0  0  0  0  0  0  0  0  0  0
    6.5498   -7.7508    0.0000 C   0  0  0  0  0  0  0  0  0  0  0  0
    5.6682   -8.9643    0.0000 C   0  0  0  0  0  0  0  0  0  0  0  0
    4.2416   -8.5008    0.0000 N   0  0  0  0  0  0  0  0  0  0  0  0
    3.0280   -9.3824    0.0000 C   0  0  0  0  0  0  0  0  0  0  0  0
    3.1848  -10.8742    0.0000 O   0  0  0  0  0  0  0  0  0  0  0  0
    1.6577   -8.7723    0.0000 N   0  0  0  0  0  0  0  0  0  0  0  0
    0.4442   -9.6540    0.0000 C   0  0  0  0  0  0  0  0  0  0  0  0
   -0.9261   -9.0439    0.0000 N   0  0  0  0  0  0  0  0  0  0  0  0
   -2.1396   -9.9256    0.0000 N   0  0  0  0  0  0  0  0  0  0  0  0
   -1.9829  -11.4174    0.0000 N   0  0  0  0  0  0  0  0  0  0  0  0
   -0.6125  -12.0275    0.0000 N   0  0  0  0  0  0  0  0  0  0  0  0
    0.6010  -11.1458    0.0000 N   0  0  0  0  0  0  0  0  0  0  0  0
    4.2416   -7.0008    0.0000 C   0  0  0  0  0  0  0  0  0  0  0  0
    3.0280   -6.1191    0.0000 O   0  0  0  0  0  0  0  0  0  0  0  0
    0.7500   -1.2990    0.0000 C   0  0  0  0  0  0  0  0  0  0  0  0
    1.5000    0.0000    0.0000 C   0  0  0  0  0  0  0  0  0  0  0  0
    0.7500    1.2990    0.0000 C   0  0  0  0  0  0  0  0  0  0  0  0
   -0.7500    1.2990    0.0000 C   0  0  0  0  0  0  0  0  0  0  0  0
   -1.5000    0.0000    0.0000 C   0  0  0  0  0  0  0  0  0  0  0  0
   -0.7500   -1.2990    0.0000 C   0  0  0  0  0  0  0  0  0  0  0  0
  1  2  1  0
  2  3  1  0
  3  4  1  0
  4  5  1  0
  5  6  1  0
  6  7  2  0
  6  8  1  0
  8  9  1  0
  9 10  2  0
 10 11  1  0
 11 12  2  0
 12 13  1  0
 13 14  1  0
 14 15  1  0
 15 16  1  0
 16 17  1  0
 17 18  1  0
 18 19  2  0
 18 20  1  0
 20 21  1  0
 21 22  2  0
 22 23  1  0
 23 24  2  0
 24 25  1  0
 25 26  2  0
 17 27  1  0
 27 28  2  0
  5 29  1  0
 29 30  2  0
 30 31  1  0
 31 32  2  0
 32 33  1  0
 33 34  2  0
 34  2  1  0
 13  9  1  0
 27 14  1  0
 34 29  1  0
 26 21  1  0
M  END
>  <Title>  (554) 
idAATJgen14

$$$$

     RDKit          2D

  8  7  0  0  0  0  0  0  0  0999 V2000
    0.0000    0.0000    0.0000 C   0  0  0  0  0  0  0  0  0  0  0  0
    1.2990    0.7500    0.0000 C   0  0  0  0  0  0  0  0  0  0  0  0
    2.5981   -0.0000    0.0000 C   0  0  0  0  0  0  0  0  0  0  0  0
    3.8971    0.7500    0.0000 C   0  0  0  0  0  0  0  0  0  0  0  0
    5.1962   -0.0000    0.0000 C   0  0  0  0  0  0  0  0  0  0  0  0
    6.4952    0.7500    0.0000 C   0  0  0  0  0  0  0  0  0  0  0  0
    7.7942   -0.0000    0.0000 C   0  0  0  0  0  0  0  0  0  0  0  0
    6.4952    2.2500    0.0000 C   0  0  0  0  0  0  0  0  0  0  0  0
  1  2  1  0
  2  3  1  0
  3  4  1  0
  4  5  1  0
  5  6  1  0
  6  7  1  0
  6  8  1  0
M  END
>  <Title>  (555) 
idAATKgen14

$$$$

     RDKit          2D

  8  8  0  0  0  0  0  0  0  0999 V2000
    4.5000    0.0000    0.0000 N   0  0  0  0  0  0  0  0  0  0  0  0
    3.0000    0.0000    0.0000 C   0  0  0  0  0  0  0  0  0  0  0  0
    1.5000    0.0000    0.0000 C   0  0  0  0  0  0  0  0  0  0  0  0
    0.7500   -1.2990    0.0000 C   0  0  0  0  0  0  0  0  0  0  0  0
   -0.7500   -1.2990    0.0000 C   0  0  0  0  0  0  0  0  0  0  0  0
   -1.5000    0.0000    0.0000 C   0  0  0  0  0  0  0  0  0  0  0  0
   -0.7500    1.2990    0.0000 C   0  0  0  0  0  0  0  0  0  0  0  0
    0.7500    1.2990    0.0000 C   0  0  0  0  0  0  0  0  0  0  0  0
  1  2  3  0
  2  3  1  0
  3  4  1  0
  4  5  2  0
  5  6  1  0
  6  7  1  0
  7  8  2  0
  8  3  1  0
M  END
>  <Title>  (556) 
idAATLgen14

$$$$

     RDKit          2D

  8  8  0  0  0  0  0  0  0  0999 V2000
    3.2286   -0.0000    0.0000 C   0  0  0  0  0  0  0  0  0  0  0  0
    1.7286    0.0000    0.0000 C   0  0  0  0  0  0  0  0  0  0  0  0
    1.0777    1.3515    0.0000 C   0  0  0  0  0  0  0  0  0  0  0  0
   -0.3846    1.6852    0.0000 C   0  0  0  0  0  0  0  0  0  0  0  0
   -1.5574    0.7500    0.0000 C   0  0  0  0  0  0  0  0  0  0  0  0
   -1.5574   -0.7500    0.0000 C   0  0  0  0  0  0  0  0  0  0  0  0
   -0.3846   -1.6852    0.0000 C   0  0  0  0  0  0  0  0  0  0  0  0
    1.0777   -1.3515    0.0000 C   0  0  0  0  0  0  0  0  0  0  0  0
  1  2  1  0
  2  3  2  0
  3  4  1  0
  4  5  1  0
  5  6  1  0
  6  7  1  0
  7  8  2  0
  8  2  1  0
M  END
>  <Title>  (557) 
idAATMgen14

$$$$

     RDKit          2D

  6  6  0  0  0  0  0  0  0  0999 V2000
    2.7760    0.0000    0.0000 C   0  0  0  0  0  0  0  0  0  0  0  0
    1.2760    0.0000    0.0000 C   0  0  0  0  0  0  0  0  0  0  0  0
    0.3943    1.2135    0.0000 N   0  0  0  0  0  0  0  0  0  0  0  0
   -1.0323    0.7500    0.0000 C   0  0  0  0  0  0  0  0  0  0  0  0
   -1.0323   -0.7500    0.0000 C   0  0  0  0  0  0  0  0  0  0  0  0
    0.3943   -1.2135    0.0000 C   0  0  0  0  0  0  0  0  0  0  0  0
  1  2  1  0
  2  3  2  0
  3  4  1  0
  4  5  2  0
  5  6  1  0
  6  2  1  0
M  END
>  <Title>  (558) 
idAATNgen14

$$$$

     RDKit          2D

  6  6  0  0  0  0  0  0  0  0999 V2000
    1.5000    0.0000    0.0000 C   0  0  0  0  0  0  0  0  0  0  0  0
    0.7500   -1.2990    0.0000 C   0  0  0  0  0  0  0  0  0  0  0  0
   -0.7500   -1.2990    0.0000 C   0  0  0  0  0  0  0  0  0  0  0  0
   -1.5000    0.0000    0.0000 C   0  0  0  0  0  0  0  0  0  0  0  0
   -0.7500    1.2990    0.0000 C   0  0  0  0  0  0  0  0  0  0  0  0
    0.7500    1.2990    0.0000 C   0  0  0  0  0  0  0  0  0  0  0  0
  1  2  2  0
  2  3  1  0
  3  4  2  0
  4  5  1  0
  5  6  2  0
  6  1  1  0
M  END
>  <Title>  (559) 
idAATOgen14

$$$$

     RDKit          2D

 40 44  0  0  0  0  0  0  0  0999 V2000
   -9.0000   -5.1962    0.0000 C   0  0  0  0  0  0  0  0  0  0  0  0
   -8.2500   -3.8971    0.0000 C   0  0  0  0  0  0  0  0  0  0  0  0
   -6.7500   -3.8971    0.0000 C   0  0  0  0  0  0  0  0  0  0  0  0
   -6.0000   -2.5981    0.0000 C   0  0  0  0  0  0  0  0  0  0  0  0
   -4.5000   -2.5981    0.0000 C   0  0  0  0  0  0  0  0  0  0  0  0
   -3.0000   -2.5981    0.0000 C   0  0  0  0  0  0  0  0  0  0  0  0
   -1.5000   -2.5981    0.0000 C   0  0  0  0  0  0  0  0  0  0  0  0
   -0.7500   -3.8971    0.0000 C   0  0  0  0  0  0  0  0  0  0  0  0
    0.7500   -3.8971    0.0000 C   0  0  0  0  0  0  0  0  0  0  0  0
    1.5000   -2.5981    0.0000 C   0  0  0  0  0  0  0  0  0  0  0  0
    3.0000   -2.5981    0.0000 C   0  0  0  0  0  0  0  0  0  0  0  0
    3.7500   -1.2990    0.0000 O   0  0  0  0  0  0  0  0  0  0  0  0
    3.7500   -3.8971    0.0000 N   0  0  0  0  0  0  0  0  0  0  0  0
    5.2500   -3.8971    0.0000 C   0  0  0  0  0  0  0  0  0  0  0  0
    6.1317   -2.6836    0.0000 N   0  0  0  0  0  0  0  0  0  0  0  0
    7.5583   -3.1471    0.0000 N   0  0  0  0  0  0  0  0  0  0  0  0
    7.5583   -4.6471    0.0000 N   0  0  0  0  0  0  0  0  0  0  0  0
    6.1317   -5.1106    0.0000 N   0  0  0  0  0  0  0  0  0  0  0  0
    5.6682   -6.5372    0.0000 N   0  0  0  0  0  0  0  0  0  0  0  0
    6.5498   -7.7508    0.0000 C   0  0  0  0  0  0  0  0  0  0  0  0
    5.6682   -8.9643    0.0000 C   0  0  0  0  0  0  0  0  0  0  0  0
    4.2416   -8.5008    0.0000 N   0  0  0  0  0  0  0  0  0  0  0  0
    3.0280   -9.3824    0.0000 C   0  0  0  0  0  0  0  0  0  0  0  0
    3.1848  -10.8742    0.0000 O   0  0  0  0  0  0  0  0  0  0  0  0
    1.6577   -8.7723    0.0000 N   0  0  0  0  0  0  0  0  0  0  0  0
    0.4442   -9.6540    0.0000 C   0  0  0  0  0  0  0  0  0  0  0  0
   -0.9261   -9.0439    0.0000 N   0  0  0  0  0  0  0  0  0  0  0  0
   -2.1396   -9.9256    0.0000 N   0  0  0  0  0  0  0  0  0  0  0  0
   -1.9829  -11.4174    0.0000 N   0  0  0  0  0  0  0  0  0  0  0  0
   -0.6125  -12.0275    0.0000 N   0  0  0  0  0  0  0  0  0  0  0  0
    0.6010  -11.1458    0.0000 N   0  0  0  0  0  0  0  0  0  0  0  0
    4.2416   -7.0008    0.0000 C   0  0  0  0  0  0  0  0  0  0  0  0
    3.0280   -6.1191    0.0000 C   0  0  0  0  0  0  0  0  0  0  0  0
    1.6577   -6.7292    0.0000 O   0  0  0  0  0  0  0  0  0  0  0  0
    0.7500   -1.2990    0.0000 C   0  0  0  0  0  0  0  0  0  0  0  0
    1.5000    0.0000    0.0000 C   0  0  0  0  0  0  0  0  0  0  0  0
    0.7500    1.2990    0.0000 C   0  0  0  0  0  0  0  0  0  0  0  0
   -0.7500    1.2990    0.0000 C   0  0  0  0  0  0  0  0  0  0  0  0
   -1.5000    0.0000    0.0000 C   0  0  0  0  0  0  0  0  0  0  0  0
   -0.7500   -1.2990    0.0000 C   0  0  0  0  0  0  0  0  0  0  0  0
  1  2  2  0
  2  3  1  0
  3  4  1  0
  4  5  1  0
  5  6  3  0
  6  7  1  0
  7  8  2  0
  8  9  1  0
  9 10  2  0
 10 11  1  0
 11 12  2  0
 11 13  1  0
 13 14  1  0
 14 15  2  0
 15 16  1  0
 16 17  2  0
 17 18  1  0
 18 19  1  0
 19 20  1  0
 20 21  1  0
 21 22  1  0
 22 23  1  0
 23 24  2  0
 23 25  1  0
 25 26  1  0
 26 27  2  0
 27 28  1  0
 28 29  2  0
 29 30  1  0
 30 31  2  0
 22 32  1  0
 32 33  1  0
 33 34  1  0
 10 35  1  0
 35 36  2  0
 36 37  1  0
 37 38  2  0
 38 39  1  0
 39 40  2  0
 40  7  1  0
 18 14  1  0
 32 19  1  0
 40 35  1  0
 31 26  1  0
M  END
>  <Title>  (560) 
idAATPgen14

$$$$

     RDKit          2D

  8  8  0  0  0  0  0  0  0  0999 V2000
    3.7500   -1.2990    0.0000 O   0  0  0  0  0  0  0  0  0  0  0  0
    3.0000    0.0000    0.0000 C   0  0  0  0  0  0  0  0  0  0  0  0
    1.5000    0.0000    0.0000 C   0  0  0  0  0  0  0  0  0  0  0  0
    0.7500   -1.2990    0.0000 C   0  0  0  0  0  0  0  0  0  0  0  0
   -0.7500   -1.2990    0.0000 C   0  0  0  0  0  0  0  0  0  0  0  0
   -1.5000    0.0000    0.0000 C   0  0  0  0  0  0  0  0  0  0  0  0
   -0.7500    1.2990    0.0000 N   0  0  0  0  0  0  0  0  0  0  0  0
    0.7500    1.2990    0.0000 C   0  0  0  0  0  0  0  0  0  0  0  0
  1  2  1  0
  2  3  1  0
  3  4  2  0
  4  5  1  0
  5  6  2  0
  6  7  1  0
  7  8  2  0
  8  3  1  0
M  END
>  <Title>  (561) 
idAATQgen14

$$$$

     RDKit          2D

128127  0  0  0  0  0  0  0  0999 V2000
    0.0000    0.0000    0.0000 C   0  0  0  0  0  0  0  0  0  0  0  0
    1.2990    0.7500    0.0000 C   0  0  0  0  0  0  0  0  0  0  0  0
    2.5981   -0.0000    0.0000 C   0  0  0  0  0  0  0  0  0  0  0  0
    3.8971    0.7500    0.0000 C   0  0  0  0  0  0  0  0  0  0  0  0
    5.1962   -0.0000    0.0000 C   0  0  0  0  0  0  0  0  0  0  0  0
    6.4952    0.7500    0.0000 C   0  0  0  0  0  0  0  0  0  0  0  0
    7.7942   -0.0000    0.0000 C   0  0  0  0  0  0  0  0  0  0  0  0
    9.0933    0.7500    0.0000 C   0  0  0  0  0  0  0  0  0  0  0  0
   10.3923   -0.0000    0.0000 C   0  0  0  0  0  0  0  0  0  0  0  0
   11.6913    0.7500    0.0000 C   0  0  0  0  0  0  0  0  0  0  0  0
   12.9904   -0.0000    0.0000 C   0  0  0  0  0  0  0  0  0  0  0  0
   14.2894    0.7500    0.0000 C   0  0  0  0  0  0  0  0  0  0  0  0
   15.5885   -0.0000    0.0000 C   0  0  0  0  0  0  0  0  0  0  0  0
   16.8875    0.7500    0.0000 C   0  0  0  0  0  0  0  0  0  0  0  0
   18.1865   -0.0000    0.0000 C   0  0  0  0  0  0  0  0  0  0  0  0
   19.4856    0.7500    0.0000 C   0  0  0  0  0  0  0  0  0  0  0  0
   20.7846   -0.0000    0.0000 C   0  0  0  0  0  0  0  0  0  0  0  0
   22.0836    0.7500    0.0000 C   0  0  0  0  0  0  0  0  0  0  0  0
   23.3827   -0.0000    0.0000 C   0  0  0  0  0  0  0  0  0  0  0  0
   24.6817    0.7500    0.0000 C   0  0  0  0  0  0  0  0  0  0  0  0
   25.9808   -0.0000    0.0000 C   0  0  0  0  0  0  0  0  0  0  0  0
   27.2798    0.7500    0.0000 C   0  0  0  0  0  0  0  0  0  0  0  0
   28.5788   -0.0000    0.0000 C   0  0  0  0  0  0  0  0  0  0  0  0
   29.8779    0.7500    0.0000 C   0  0  0  0  0  0  0  0  0  0  0  0
   31.1769   -0.0000    0.0000 C   0  0  0  0  0  0  0  0  0  0  0  0
   32.4760    0.7500    0.0000 C   0  0  0  0  0  0  0  0  0  0  0  0
   33.7750   -0.0000    0.0000 C   0  0  0  0  0  0  0  0  0  0  0  0
   35.0740    0.7500    0.0000 C   0  0  0  0  0  0  0  0  0  0  0  0
   36.3731   -0.0000    0.0000 C   0  0  0  0  0  0  0  0  0  0  0  0
   37.6721    0.7500    0.0000 C   0  0  0  0  0  0  0  0  0  0  0  0
   38.9711   -0.0000    0.0000 C   0  0  0  0  0  0  0  0  0  0  0  0
   40.2702    0.7500    0.0000 C   0  0  0  0  0  0  0  0  0  0  0  0
   41.5692   -0.0000    0.0000 C   0  0  0  0  0  0  0  0  0  0  0  0
   42.8683    0.7500    0.0000 C   0  0  0  0  0  0  0  0  0  0  0  0
   44.1673   -0.0000    0.0000 C   0  0  0  0  0  0  0  0  0  0  0  0
   45.4663    0.7500    0.0000 C   0  0  0  0  0  0  0  0  0  0  0  0
   46.7654   -0.0000    0.0000 C   0  0  0  0  0  0  0  0  0  0  0  0
   48.0644    0.7500    0.0000 C   0  0  0  0  0  0  0  0  0  0  0  0
   49.3634   -0.0000    0.0000 C   0  0  0  0  0  0  0  0  0  0  0  0
   50.6625    0.7500    0.0000 C   0  0  0  0  0  0  0  0  0  0  0  0
   51.9615   -0.0000    0.0000 C   0  0  0  0  0  0  0  0  0  0  0  0
   53.2606    0.7500    0.0000 C   0  0  0  0  0  0  0  0  0  0  0  0
   54.5596   -0.0000    0.0000 C   0  0  0  0  0  0  0  0  0  0  0  0
   55.8586    0.7500    0.0000 C   0  0  0  0  0  0  0  0  0  0  0  0
   57.1577   -0.0000    0.0000 C   0  0  0  0  0  0  0  0  0  0  0  0
   58.4567    0.7500    0.0000 C   0  0  0  0  0  0  0  0  0  0  0  0
   59.7558   -0.0000    0.0000 C   0  0  0  0  0  0  0  0  0  0  0  0
   61.0548    0.7500    0.0000 C   0  0  0  0  0  0  0  0  0  0  0  0
   62.3538   -0.0000    0.0000 C   0  0  0  0  0  0  0  0  0  0  0  0
   63.6529    0.7500    0.0000 C   0  0  0  0  0  0  0  0  0  0  0  0
   64.9519   -0.0000    0.0000 C   0  0  0  0  0  0  0  0  0  0  0  0
   66.2509    0.7500    0.0000 C   0  0  0  0  0  0  0  0  0  0  0  0
   67.5500   -0.0000    0.0000 C   0  0  0  0  0  0  0  0  0  0  0  0
   68.8490    0.7500    0.0000 C   0  0  0  0  0  0  0  0  0  0  0  0
   70.1481   -0.0000    0.0000 C   0  0  0  0  0  0  0  0  0  0  0  0
   71.4471    0.7500    0.0000 C   0  0  0  0  0  0  0  0  0  0  0  0
   72.7461   -0.0000    0.0000 C   0  0  0  0  0  0  0  0  0  0  0  0
   74.0452    0.7500    0.0000 C   0  0  0  0  0  0  0  0  0  0  0  0
   75.3442   -0.0000    0.0000 C   0  0  0  0  0  0  0  0  0  0  0  0
   76.6432    0.7500    0.0000 C   0  0  0  0  0  0  0  0  0  0  0  0
   77.9423   -0.0000    0.0000 C   0  0  0  0  0  0  0  0  0  0  0  0
   79.2413    0.7500    0.0000 C   0  0  0  0  0  0  0  0  0  0  0  0
   80.5404   -0.0000    0.0000 C   0  0  0  0  0  0  0  0  0  0  0  0
   81.8394    0.7500    0.0000 C   0  0  0  0  0  0  0  0  0  0  0  0
   83.1384   -0.0000    0.0000 C   0  0  0  0  0  0  0  0  0  0  0  0
   84.4375    0.7500    0.0000 C   0  0  0  0  0  0  0  0  0  0  0  0
   85.7365   -0.0000    0.0000 C   0  0  0  0  0  0  0  0  0  0  0  0
   87.0356    0.7500    0.0000 C   0  0  0  0  0  0  0  0  0  0  0  0
   88.3346   -0.0000    0.0000 C   0  0  0  0  0  0  0  0  0  0  0  0
   89.6336    0.7500    0.0000 C   0  0  0  0  0  0  0  0  0  0  0  0
   90.9327   -0.0000    0.0000 C   0  0  0  0  0  0  0  0  0  0  0  0
   92.2317    0.7500    0.0000 C   0  0  0  0  0  0  0  0  0  0  0  0
   93.5307   -0.0000    0.0000 C   0  0  0  0  0  0  0  0  0  0  0  0
   94.8298    0.7500    0.0000 C   0  0  0  0  0  0  0  0  0  0  0  0
   96.1288   -0.0000    0.0000 C   0  0  0  0  0  0  0  0  0  0  0  0
   97.4279    0.7500    0.0000 C   0  0  0  0  0  0  0  0  0  0  0  0
   98.7269   -0.0000    0.0000 C   0  0  0  0  0  0  0  0  0  0  0  0
  100.0259    0.7500    0.0000 C   0  0  0  0  0  0  0  0  0  0  0  0
  101.3250   -0.0000    0.0000 C   0  0  0  0  0  0  0  0  0  0  0  0
  102.6240    0.7500    0.0000 C   0  0  0  0  0  0  0  0  0  0  0  0
  103.9230   -0.0000    0.0000 C   0  0  0  0  0  0  0  0  0  0  0  0
  105.2221    0.7500    0.0000 C   0  0  0  0  0  0  0  0  0  0  0  0
  106.5211   -0.0000    0.0000 C   0  0  0  0  0  0  0  0  0  0  0  0
  107.8202    0.7500    0.0000 C   0  0  0  0  0  0  0  0  0  0  0  0
  109.1192   -0.0000    0.0000 C   0  0  0  0  0  0  0  0  0  0  0  0
  110.4182    0.7500    0.0000 C   0  0  0  0  0  0  0  0  0  0  0  0
  111.7173   -0.0000    0.0000 C   0  0  0  0  0  0  0  0  0  0  0  0
  113.0163    0.7500    0.0000 C   0  0  0  0  0  0  0  0  0  0  0  0
  114.3154   -0.0000    0.0000 C   0  0  0  0  0  0  0  0  0  0  0  0
  115.6144    0.7500    0.0000 C   0  0  0  0  0  0  0  0  0  0  0  0
  116.9134   -0.0000    0.0000 C   0  0  0  0  0  0  0  0  0  0  0  0
  118.2125    0.7500    0.0000 C   0  0  0  0  0  0  0  0  0  0  0  0
  119.5115   -0.0000    0.0000 C   0  0  0  0  0  0  0  0  0  0  0  0
  120.8105    0.7500    0.0000 C   0  0  0  0  0  0  0  0  0  0  0  0
  122.1096   -0.0000    0.0000 C   0  0  0  0  0  0  0  0  0  0  0  0
  123.4086    0.7500    0.0000 C   0  0  0  0  0  0  0  0  0  0  0  0
  124.7077   -0.0000    0.0000 C   0  0  0  0  0  0  0  0  0  0  0  0
  126.0067    0.7500    0.0000 C   0  0  0  0  0  0  0  0  0  0  0  0
  127.3057   -0.0000    0.0000 C   0  0  0  0  0  0  0  0  0  0  0  0
  128.6048    0.7500    0.0000 C   0  0  0  0  0  0  0  0  0  0  0  0
  129.9038   -0.0000    0.0000 C   0  0  0  0  0  0  0  0  0  0  0  0
  131.2028    0.7500    0.0000 C   0  0  0  0  0  0  0  0  0  0  0  0
  132.5019   -0.0000    0.0000 C   0  0  0  0  0  0  0  0  0  0  0  0
  133.8009    0.7500    0.0000 C   0  0  0  0  0  0  0  0  0  0  0  0
  135.1000   -0.0000    0.0000 C   0  0  0  0  0  0  0  0  0  0  0  0
  136.3990    0.7500    0.0000 C   0  0  0  0  0  0  0  0  0  0  0  0
  137.6980   -0.0000    0.0000 C   0  0  0  0  0  0  0  0  0  0  0  0
  138.9971    0.7500    0.0000 C   0  0  0  0  0  0  0  0  0  0  0  0
  140.2961   -0.0000    0.0000 C   0  0  0  0  0  0  0  0  0  0  0  0
  141.5952    0.7500    0.0000 C   0  0  0  0  0  0  0  0  0  0  0  0
  142.8942   -0.0000    0.0000 C   0  0  0  0  0  0  0  0  0  0  0  0
  144.1932    0.7500    0.0000 C   0  0  0  0  0  0  0  0  0  0  0  0
  145.4923   -0.0000    0.0000 C   0  0  0  0  0  0  0  0  0  0  0  0
  146.7913    0.7500    0.0000 C   0  0  0  0  0  0  0  0  0  0  0  0
  148.0903   -0.0000    0.0000 C   0  0  0  0  0  0  0  0  0  0  0  0
  149.3894    0.7500    0.0000 C   0  0  0  0  0  0  0  0  0  0  0  0
  150.6884   -0.0000    0.0000 C   0  0  0  0  0  0  0  0  0  0  0  0
  151.9875    0.7500    0.0000 C   0  0  0  0  0  0  0  0  0  0  0  0
  153.2865   -0.0000    0.0000 C   0  0  0  0  0  0  0  0  0  0  0  0
  154.5855    0.7500    0.0000 C   0  0  0  0  0  0  0  0  0  0  0  0
  155.8846   -0.0000    0.0000 C   0  0  0  0  0  0  0  0  0  0  0  0
  157.1836    0.7500    0.0000 C   0  0  0  0  0  0  0  0  0  0  0  0
  158.4826   -0.0000    0.0000 C   0  0  0  0  0  0  0  0  0  0  0  0
  159.7817    0.7500    0.0000 C   0  0  0  0  0  0  0  0  0  0  0  0
  161.0807   -0.0000    0.0000 C   0  0  0  0  0  0  0  0  0  0  0  0
  162.3798    0.7500    0.0000 C   0  0  0  0  0  0  0  0  0  0  0  0
  163.6788   -0.0000    0.0000 C   0  0  0  0  0  0  0  0  0  0  0  0
  164.9778    0.7500    0.0000 C   0  0  0  0  0  0  0  0  0  0  0  0
  1  2  1  0
  2  3  1  0
  3  4  1  0
  4  5  1  0
  5  6  1  0
  6  7  1  0
  7  8  1  0
  8  9  1  0
  9 10  1  0
 10 11  1  0
 11 12  1  0
 12 13  1  0
 13 14  1  0
 14 15  1  0
 15 16  1  0
 16 17  1  0
 17 18  1  0
 18 19  1  0
 19 20  1  0
 20 21  1  0
 21 22  1  0
 22 23  1  0
 23 24  1  0
 24 25  1  0
 25 26  1  0
 26 27  1  0
 27 28  1  0
 28 29  1  0
 29 30  1  0
 30 31  1  0
 31 32  1  0
 32 33  1  0
 33 34  1  0
 34 35  1  0
 35 36  1  0
 36 37  1  0
 37 38  1  0
 38 39  1  0
 39 40  1  0
 40 41  1  0
 41 42  1  0
 42 43  1  0
 43 44  1  0
 44 45  1  0
 45 46  1  0
 46 47  1  0
 47 48  1  0
 48 49  1  0
 49 50  1  0
 50 51  1  0
 51 52  1  0
 52 53  1  0
 53 54  1  0
 54 55  1  0
 55 56  1  0
 56 57  1  0
 57 58  1  0
 58 59  1  0
 59 60  1  0
 60 61  1  0
 61 62  1  0
 62 63  1  0
 63 64  1  0
 64 65  1  0
 65 66  1  0
 66 67  1  0
 67 68  1  0
 68 69  1  0
 69 70  1  0
 70 71  1  0
 71 72  1  0
 72 73  1  0
 73 74  1  0
 74 75  1  0
 75 76  1  0
 76 77  1  0
 77 78  1  0
 78 79  1  0
 79 80  1  0
 80 81  1  0
 81 82  1  0
 82 83  1  0
 83 84  1  0
 84 85  1  0
 85 86  1  0
 86 87  1  0
 87 88  1  0
 88 89  1  0
 89 90  1  0
 90 91  1  0
 91 92  1  0
 92 93  1  0
 93 94  1  0
 94 95  1  0
 95 96  1  0
 96 97  1  0
 97 98  1  0
 98 99  1  0
 99100  1  0
100101  1  0
101102  1  0
102103  1  0
103104  1  0
104105  1  0
105106  1  0
106107  1  0
107108  1  0
108109  1  0
109110  1  0
110111  1  0
111112  1  0
112113  1  0
113114  1  0
114115  1  0
115116  1  0
116117  1  0
117118  1  0
118119  1  0
119120  1  0
120121  1  0
121122  1  0
122123  1  0
123124  1  0
124125  1  0
125126  1  0
126127  1  0
127128  1  0
M  END
>  <Title>  (562) 
idAATRgen14

$$$$

     RDKit          2D

 14 15  0  0  0  0  0  0  0  0999 V2000
    3.2286   -0.0000    0.0000 C   0  0  0  0  0  0  0  0  0  0  0  0
    1.7286    0.0000    0.0000 C   0  0  0  0  0  0  0  0  0  0  0  0
    1.0777    1.3515    0.0000 C   0  0  0  0  0  0  0  0  0  0  0  0
   -0.3846    1.6852    0.0000 C   0  0  0  0  0  0  0  0  0  0  0  0
   -1.5574    0.7500    0.0000 C   0  0  0  0  0  0  0  0  0  0  0  0
   -1.5574   -0.7500    0.0000 C   0  0  0  0  0  0  0  0  0  0  0  0
   -2.9088   -1.4008    0.0000 C   0  0  0  0  0  0  0  0  0  0  0  0
   -4.1482   -0.5558    0.0000 C   0  0  0  0  0  0  0  0  0  0  0  0
   -5.4997   -1.2067    0.0000 C   0  0  0  0  0  0  0  0  0  0  0  0
   -5.6118   -2.7025    0.0000 C   0  0  0  0  0  0  0  0  0  0  0  0
   -4.3724   -3.5475    0.0000 N   0  0  0  0  0  0  0  0  0  0  0  0
   -3.0209   -2.8966    0.0000 C   0  0  0  0  0  0  0  0  0  0  0  0
   -0.3846   -1.6852    0.0000 C   0  0  0  0  0  0  0  0  0  0  0  0
    1.0777   -1.3515    0.0000 C   0  0  0  0  0  0  0  0  0  0  0  0
  1  2  1  0
  2  3  1  0
  3  4  1  0
  4  5  1  0
  5  6  1  0
  6  7  1  0
  7  8  2  0
  8  9  1  0
  9 10  2  0
 10 11  1  0
 11 12  2  0
  6 13  1  0
 13 14  1  0
 14  2  1  0
 12  7  1  0
M  END
>  <Title>  (563) 
idAATSgen14

$$$$

     RDKit          2D

 48 54  0  0  0  0  0  0  0  0999 V2000
   -1.4874   -6.9766    0.0000 C   0  0  0  0  0  0  0  0  0  0  0  0
   -2.4911   -8.0914    0.0000 C   0  0  0  0  0  0  0  0  0  0  0  0
   -2.0276   -9.5179    0.0000 C   0  0  0  0  0  0  0  0  0  0  0  0
   -3.0313  -10.6327    0.0000 C   0  0  0  0  0  0  0  0  0  0  0  0
   -4.4985  -10.3208    0.0000 C   0  0  0  0  0  0  0  0  0  0  0  0
   -4.9620   -8.8942    0.0000 C   0  0  0  0  0  0  0  0  0  0  0  0
   -3.9583   -7.7795    0.0000 C   0  0  0  0  0  0  0  0  0  0  0  0
   -4.4218   -6.3529    0.0000 C   0  0  0  0  0  0  0  0  0  0  0  0
   -5.8891   -6.0410    0.0000 O   0  0  0  0  0  0  0  0  0  0  0  0
   -3.4182   -5.2382    0.0000 N   0  0  0  0  0  0  0  0  0  0  0  0
   -3.8817   -3.8116    0.0000 C   0  0  0  0  0  0  0  0  0  0  0  0
   -5.3083   -3.3481    0.0000 N   0  0  0  0  0  0  0  0  0  0  0  0
   -5.3083   -1.8481    0.0000 N   0  0  0  0  0  0  0  0  0  0  0  0
   -3.8817   -1.3846    0.0000 N   0  0  0  0  0  0  0  0  0  0  0  0
   -3.0000   -2.5981    0.0000 N   0  0  0  0  0  0  0  0  0  0  0  0
   -1.5000   -2.5981    0.0000 C   0  0  0  0  0  0  0  0  0  0  0  0
   -0.7500   -3.8971    0.0000 C   0  0  0  0  0  0  0  0  0  0  0  0
    0.7500   -3.8971    0.0000 C   0  0  0  0  0  0  0  0  0  0  0  0
    1.5000   -2.5981    0.0000 C   0  0  0  0  0  0  0  0  0  0  0  0
    3.0000   -2.5981    0.0000 C   0  0  0  0  0  0  0  0  0  0  0  0
    3.7500   -1.2990    0.0000 O   0  0  0  0  0  0  0  0  0  0  0  0
    3.7500   -3.8971    0.0000 N   0  0  0  0  0  0  0  0  0  0  0  0
    5.2500   -3.8971    0.0000 C   0  0  0  0  0  0  0  0  0  0  0  0
    6.1317   -2.6836    0.0000 N   0  0  0  0  0  0  0  0  0  0  0  0
    7.5583   -3.1471    0.0000 N   0  0  0  0  0  0  0  0  0  0  0  0
    7.5583   -4.6471    0.0000 N   0  0  0  0  0  0  0  0  0  0  0  0
    6.1317   -5.1106    0.0000 N   0  0  0  0  0  0  0  0  0  0  0  0
    5.6682   -6.5372    0.0000 N   0  0  0  0  0  0  0  0  0  0  0  0
    6.5498   -7.7508    0.0000 C   0  0  0  0  0  0  0  0  0  0  0  0
    5.6682   -8.9643    0.0000 C   0  0  0  0  0  0  0  0  0  0  0  0
    4.2416   -8.5008    0.0000 N   0  0  0  0  0  0  0  0  0  0  0  0
    3.0280   -9.3824    0.0000 C   0  0  0  0  0  0  0  0  0  0  0  0
    1.6577   -8.7723    0.0000 O   0  0  0  0  0  0  0  0  0  0  0  0
    3.1848  -10.8742    0.0000 N   0  0  0  0  0  0  0  0  0  0  0  0
    1.9713  -11.7559    0.0000 C   0  0  0  0  0  0  0  0  0  0  0  0
    0.6010  -11.1458    0.0000 N   0  0  0  0  0  0  0  0  0  0  0  0
   -0.6125  -12.0275    0.0000 N   0  0  0  0  0  0  0  0  0  0  0  0
   -0.4557  -13.5192    0.0000 N   0  0  0  0  0  0  0  0  0  0  0  0
    0.9146  -14.1293    0.0000 N   0  0  0  0  0  0  0  0  0  0  0  0
    2.1281  -13.2477    0.0000 N   0  0  0  0  0  0  0  0  0  0  0  0
    4.2416   -7.0008    0.0000 C   0  0  0  0  0  0  0  0  0  0  0  0
    3.0280   -6.1191    0.0000 O   0  0  0  0  0  0  0  0  0  0  0  0
    0.7500   -1.2990    0.0000 C   0  0  0  0  0  0  0  0  0  0  0  0
    1.5000    0.0000    0.0000 C   0  0  0  0  0  0  0  0  0  0  0  0
    0.7500    1.2990    0.0000 C   0  0  0  0  0  0  0  0  0  0  0  0
   -0.7500    1.2990    0.0000 C   0  0  0  0  0  0  0  0  0  0  0  0
   -1.5000    0.0000    0.0000 C   0  0  0  0  0  0  0  0  0  0  0  0
   -0.7500   -1.2990    0.0000 C   0  0  0  0  0  0  0  0  0  0  0  0
  1  2  1  0
  2  3  1  0
  3  4  1  0
  4  5  1  0
  5  6  1  0
  6  7  1  0
  7  8  1  0
  8  9  2  0
  8 10  1  0
 10 11  1  0
 11 12  2  0
 12 13  1  0
 13 14  2  0
 14 15  1  0
 15 16  1  0
 16 17  2  0
 17 18  1  0
 18 19  2  0
 19 20  1  0
 20 21  2  0
 20 22  1  0
 22 23  1  0
 23 24  2  0
 24 25  1  0
 25 26  2  0
 26 27  1  0
 27 28  1  0
 28 29  1  0
 29 30  1  0
 30 31  1  0
 31 32  1  0
 32 33  2  0
 32 34  1  0
 34 35  1  0
 35 36  2  0
 36 37  1  0
 37 38  2  0
 38 39  1  0
 39 40  2  0
 31 41  1  0
 41 42  2  0
 19 43  1  0
 43 44  2  0
 44 45  1  0
 45 46  2  0
 46 47  1  0
 47 48  2  0
  7  2  1  0
 15 11  1  0
 48 16  1  0
 27 23  1  0
 41 28  1  0
 48 43  1  0
 40 35  1  0
M  END
>  <Title>  (564) 
idAATTgen14

$$$$

     RDKit          2D

  8  7  0  0  0  0  0  0  0  0999 V2000
    0.0000    0.0000    0.0000 C   0  0  0  0  0  0  0  0  0  0  0  0
    1.2990    0.7500    0.0000 C   0  0  0  0  0  0  0  0  0  0  0  0
    2.5981   -0.0000    0.0000 C   0  0  0  0  0  0  0  0  0  0  0  0
    3.8971    0.7500    0.0000 C   0  0  0  0  0  0  0  0  0  0  0  0
    2.5981   -1.5000    0.0000 C   0  0  0  0  0  0  0  0  0  0  0  0
    3.8971   -2.2500    0.0000 C   0  0  0  0  0  0  0  0  0  0  0  0
    3.8971   -3.7500    0.0000 C   0  0  0  0  0  0  0  0  0  0  0  0
    5.1962   -1.5000    0.0000 O   0  0  0  0  0  0  0  0  0  0  0  0
  1  2  1  0
  2  3  1  0
  3  4  1  0
  3  5  1  0
  5  6  1  0
  6  7  1  0
  6  8  2  0
M  END
>  <Title>  (565) 
idAATUgen14

$$$$

     RDKit          2D

  7  6  0  0  0  0  0  0  0  0999 V2000
    0.0000    0.0000    0.0000 C   0  0  0  0  0  0  0  0  0  0  0  0
    1.2990    0.7500    0.0000 C   0  0  0  0  0  0  0  0  0  0  0  0
    2.5981   -0.0000    0.0000 C   0  0  0  0  0  0  0  0  0  0  0  0
    3.8971    0.7500    0.0000 C   0  0  0  0  0  0  0  0  0  0  0  0
    5.1962   -0.0000    0.0000 C   0  0  0  0  0  0  0  0  0  0  0  0
    6.4952    0.7500    0.0000 C   0  0  0  0  0  0  0  0  0  0  0  0
    5.1962   -1.5000    0.0000 C   0  0  0  0  0  0  0  0  0  0  0  0
  1  2  1  0
  2  3  1  0
  3  4  1  0
  4  5  1  0
  5  6  1  0
  5  7  1  0
M  END
>  <Title>  (566) 
idAATVgen14

$$$$

     RDKit          2D

 20 21  0  0  0  0  0  0  0  0999 V2000
   -2.5081  -11.2149    0.0000 C   0  0  0  0  0  0  0  0  0  0  0  0
   -1.0409  -10.9030    0.0000 C   0  0  0  0  0  0  0  0  0  0  0  0
   -0.0372  -12.0177    0.0000 O   0  0  0  0  0  0  0  0  0  0  0  0
   -0.5773   -9.4764    0.0000 N   0  0  0  0  0  0  0  0  0  0  0  0
    0.8899   -9.1645    0.0000 C   0  0  0  0  0  0  0  0  0  0  0  0
    2.0046  -10.1682    0.0000 C   0  0  0  0  0  0  0  0  0  0  0  0
    3.3037   -9.4182    0.0000 S   0  0  0  0  0  0  0  0  0  0  0  0
    2.9918   -7.9510    0.0000 C   0  0  0  0  0  0  0  0  0  0  0  0
    1.5000   -7.7942    0.0000 C   0  0  0  0  0  0  0  0  0  0  0  0
    0.7500   -6.4952    0.0000 O   0  0  0  0  0  0  0  0  0  0  0  0
    1.5000   -5.1962    0.0000 C   0  0  0  0  0  0  0  0  0  0  0  0
    3.0000   -5.1962    0.0000 O   0  0  0  0  0  0  0  0  0  0  0  0
    0.7500   -3.8971    0.0000 N   0  0  0  0  0  0  0  0  0  0  0  0
    1.5000   -2.5981    0.0000 C   0  0  0  0  0  0  0  0  0  0  0  0
    0.7500   -1.2990    0.0000 C   0  0  0  0  0  0  0  0  0  0  0  0
    1.5000    0.0000    0.0000 C   0  0  0  0  0  0  0  0  0  0  0  0
    0.7500    1.2990    0.0000 C   0  0  0  0  0  0  0  0  0  0  0  0
   -0.7500    1.2990    0.0000 C   0  0  0  0  0  0  0  0  0  0  0  0
   -1.5000    0.0000    0.0000 C   0  0  0  0  0  0  0  0  0  0  0  0
   -0.7500   -1.2990    0.0000 C   0  0  0  0  0  0  0  0  0  0  0  0
  1  2  1  0
  2  3  2  0
  2  4  1  0
  4  5  1  0
  5  6  2  0
  6  7  1  0
  7  8  1  0
  8  9  1  0
  9 10  1  0
 10 11  1  0
 11 12  2  0
 11 13  1  0
 13 14  1  0
 14 15  1  0
 15 16  2  0
 16 17  1  0
 17 18  2  0
 18 19  1  0
 19 20  2  0
  9  5  1  0
 20 15  1  0
M  END
>  <Title>  (567) 
idAATWgen14

$$$$

     RDKit          2D

  8  8  0  0  0  0  0  0  0  0999 V2000
    3.0000    0.0000    0.0000 C   0  0  0  0  0  0  0  0  0  0  0  0
    1.5000    0.0000    0.0000 C   0  0  0  0  0  0  0  0  0  0  0  0
    0.7500   -1.2990    0.0000 C   0  0  0  0  0  0  0  0  0  0  0  0
   -0.7500   -1.2990    0.0000 C   0  0  0  0  0  0  0  0  0  0  0  0
   -1.5000   -2.5981    0.0000 O   0  0  0  0  0  0  0  0  0  0  0  0
   -1.5000    0.0000    0.0000 C   0  0  0  0  0  0  0  0  0  0  0  0
   -0.7500    1.2990    0.0000 C   0  0  0  0  0  0  0  0  0  0  0  0
    0.7500    1.2990    0.0000 N   0  0  0  0  0  0  0  0  0  0  0  0
  1  2  1  0
  2  3  2  0
  3  4  1  0
  4  5  1  0
  4  6  1  0
  6  7  1  0
  7  8  2  0
  8  2  1  0
M  END
>  <Title>  (568) 
idAATXgen14

$$$$

     RDKit          2D

 83 84  0  0  0  0  0  0  0  0999 V2000
    3.7750   -4.1251    0.0000 C   0  0  0  0  0  0  0  0  0  0  0  0
    4.5501   -4.3112    0.0000 C   0  0  0  0  0  0  0  0  0  0  0  0
    4.2768   -5.7861    0.0000 C   0  0  0  0  0  0  0  0  0  0  0  0
    4.1591   -7.2815    0.0000 C   0  0  0  0  0  0  0  0  0  0  0  0
    4.1984   -8.7810    0.0000 C   0  0  0  0  0  0  0  0  0  0  0  0
    4.3941  -10.2681    0.0000 C   0  0  0  0  0  0  0  0  0  0  0  0
    4.7443  -11.7267    0.0000 C   0  0  0  0  0  0  0  0  0  0  0  0
    5.2450  -13.1406    0.0000 C   0  0  0  0  0  0  0  0  0  0  0  0
    5.8908  -14.4945    0.0000 C   0  0  0  0  0  0  0  0  0  0  0  0
    6.6745  -15.7735    0.0000 C   0  0  0  0  0  0  0  0  0  0  0  0
    7.5877  -16.9635    0.0000 C   0  0  0  0  0  0  0  0  0  0  0  0
    8.6202  -18.0516    0.0000 C   0  0  0  0  0  0  0  0  0  0  0  0
    9.7608  -19.0257    0.0000 C   0  0  0  0  0  0  0  0  0  0  0  0
   10.9970  -19.8754    0.0000 C   0  0  0  0  0  0  0  0  0  0  0  0
   12.3152  -20.5911    0.0000 C   0  0  0  0  0  0  0  0  0  0  0  0
   13.7011  -21.1651    0.0000 C   0  0  0  0  0  0  0  0  0  0  0  0
   15.1393  -21.5911    0.0000 C   0  0  0  0  0  0  0  0  0  0  0  0
   16.6142  -21.8645    0.0000 C   0  0  0  0  0  0  0  0  0  0  0  0
   18.1095  -21.9822    0.0000 C   0  0  0  0  0  0  0  0  0  0  0  0
   19.6090  -21.9429    0.0000 C   0  0  0  0  0  0  0  0  0  0  0  0
   21.0962  -21.7471    0.0000 C   0  0  0  0  0  0  0  0  0  0  0  0
   22.5548  -21.3970    0.0000 C   0  0  0  0  0  0  0  0  0  0  0  0
   23.9687  -20.8963    0.0000 C   0  0  0  0  0  0  0  0  0  0  0  0
   25.3226  -20.2505    0.0000 C   0  0  0  0  0  0  0  0  0  0  0  0
   26.6016  -19.4667    0.0000 C   0  0  0  0  0  0  0  0  0  0  0  0
   27.7916  -18.5536    0.0000 C   0  0  0  0  0  0  0  0  0  0  0  0
   28.8796  -17.5211    0.0000 C   0  0  0  0  0  0  0  0  0  0  0  0
   29.8538  -16.3805    0.0000 C   0  0  0  0  0  0  0  0  0  0  0  0
   30.7034  -15.1443    0.0000 C   0  0  0  0  0  0  0  0  0  0  0  0
   31.4192  -13.8260    0.0000 C   0  0  0  0  0  0  0  0  0  0  0  0
   31.9932  -12.4402    0.0000 C   0  0  0  0  0  0  0  0  0  0  0  0
   32.4192  -11.0020    0.0000 C   0  0  0  0  0  0  0  0  0  0  0  0
   32.6926   -9.5271    0.0000 C   0  0  0  0  0  0  0  0  0  0  0  0
   32.8103   -8.0317    0.0000 C   0  0  0  0  0  0  0  0  0  0  0  0
   32.7710   -6.5322    0.0000 C   0  0  0  0  0  0  0  0  0  0  0  0
   32.5752   -5.0451    0.0000 C   0  0  0  0  0  0  0  0  0  0  0  0
   32.2250   -3.5865    0.0000 C   0  0  0  0  0  0  0  0  0  0  0  0
   31.7243   -2.1726    0.0000 C   0  0  0  0  0  0  0  0  0  0  0  0
   31.0786   -0.8187    0.0000 C   0  0  0  0  0  0  0  0  0  0  0  0
   30.2948    0.4603    0.0000 C   0  0  0  0  0  0  0  0  0  0  0  0
   29.3817    1.6503    0.0000 C   0  0  0  0  0  0  0  0  0  0  0  0
   28.3491    2.7384    0.0000 C   0  0  0  0  0  0  0  0  0  0  0  0
   27.2085    3.7125    0.0000 C   0  0  0  0  0  0  0  0  0  0  0  0
   25.9723    4.5621    0.0000 C   0  0  0  0  0  0  0  0  0  0  0  0
   24.6541    5.2779    0.0000 C   0  0  0  0  0  0  0  0  0  0  0  0
   23.2683    5.8519    0.0000 C   0  0  0  0  0  0  0  0  0  0  0  0
   21.8301    6.2779    0.0000 C   0  0  0  0  0  0  0  0  0  0  0  0
   20.3552    6.5513    0.0000 C   0  0  0  0  0  0  0  0  0  0  0  0
   18.8598    6.6690    0.0000 C   0  0  0  0  0  0  0  0  0  0  0  0
   17.3603    6.6297    0.0000 C   0  0  0  0  0  0  0  0  0  0  0  0
   15.8732    6.4339    0.0000 C   0  0  0  0  0  0  0  0  0  0  0  0
   14.4146    6.0838    0.0000 C   0  0  0  0  0  0  0  0  0  0  0  0
   13.0006    5.5830    0.0000 C   0  0  0  0  0  0  0  0  0  0  0  0
   11.6468    4.9373    0.0000 C   0  0  0  0  0  0  0  0  0  0  0  0
   10.3678    4.1535    0.0000 C   0  0  0  0  0  0  0  0  0  0  0  0
    9.1778    3.2404    0.0000 C   0  0  0  0  0  0  0  0  0  0  0  0
    8.0897    2.2079    0.0000 C   0  0  0  0  0  0  0  0  0  0  0  0
    7.1155    1.0672    0.0000 C   0  0  0  0  0  0  0  0  0  0  0  0
    6.2659   -0.1689    0.0000 C   0  0  0  0  0  0  0  0  0  0  0  0
    5.5502   -1.4872    0.0000 C   0  0  0  0  0  0  0  0  0  0  0  0
    5.0460   -0.0000    0.0000 C   0  0  0  0  0  0  0  0  0  0  0  0
    4.8740    1.3060    0.0000 C   0  0  0  0  0  0  0  0  0  0  0  0
    4.3699    2.5230    0.0000 C   0  0  0  0  0  0  0  0  0  0  0  0
    3.5680    3.5680    0.0000 C   0  0  0  0  0  0  0  0  0  0  0  0
    2.5230    4.3699    0.0000 C   0  0  0  0  0  0  0  0  0  0  0  0
    1.3060    4.8740    0.0000 C   0  0  0  0  0  0  0  0  0  0  0  0
    0.0000    5.0460    0.0000 C   0  0  0  0  0  0  0  0  0  0  0  0
   -1.3060    4.8740    0.0000 C   0  0  0  0  0  0  0  0  0  0  0  0
   -2.5230    4.3699    0.0000 C   0  0  0  0  0  0  0  0  0  0  0  0
   -3.5680    3.5680    0.0000 C   0  0  0  0  0  0  0  0  0  0  0  0
   -4.3699    2.5230    0.0000 C   0  0  0  0  0  0  0  0  0  0  0  0
   -4.8740    1.3060    0.0000 C   0  0  0  0  0  0  0  0  0  0  0  0
   -5.0460    0.0000    0.0000 C   0  0  0  0  0  0  0  0  0  0  0  0
   -4.8740   -1.3060    0.0000 C   0  0  0  0  0  0  0  0  0  0  0  0
   -4.3699   -2.5230    0.0000 C   0  0  0  0  0  0  0  0  0  0  0  0
   -3.5680   -3.5680    0.0000 C   0  0  0  0  0  0  0  0  0  0  0  0
   -2.5230   -4.3699    0.0000 C   0  0  0  0  0  0  0  0  0  0  0  0
   -1.3060   -4.8740    0.0000 C   0  0  0  0  0  0  0  0  0  0  0  0
   -0.0000   -5.0460    0.0000 C   0  0  0  0  0  0  0  0  0  0  0  0
    1.3060   -4.8740    0.0000 C   0  0  0  0  0  0  0  0  0  0  0  0
    2.5230   -4.3699    0.0000 C   0  0  0  0  0  0  0  0  0  0  0  0
    3.5680   -3.5680    0.0000 C   0  0  0  0  0  0  0  0  0  0  0  0
    4.9762   -2.8730    0.0000 C   0  0  0  0  0  0  0  0  0  0  0  0
  1  2  1  0
  2  3  1  0
  3  4  1  0
  4  5  1  0
  5  6  1  0
  6  7  1  0
  7  8  1  0
  8  9  1  0
  9 10  1  0
 10 11  1  0
 11 12  1  0
 12 13  1  0
 13 14  1  0
 14 15  1  0
 15 16  1  0
 16 17  1  0
 17 18  1  0
 18 19  1  0
 19 20  1  0
 20 21  1  0
 21 22  1  0
 22 23  1  0
 23 24  1  0
 24 25  1  0
 25 26  1  0
 26 27  1  0
 27 28  1  0
 28 29  1  0
 29 30  1  0
 30 31  1  0
 31 32  1  0
 32 33  1  0
 33 34  1  0
 34 35  1  0
 35 36  1  0
 36 37  1  0
 37 38  1  0
 38 39  1  0
 39 40  1  0
 40 41  1  0
 41 42  1  0
 42 43  1  0
 43 44  1  0
 44 45  1  0
 45 46  1  0
 46 47  1  0
 47 48  1  0
 48 49  1  0
 49 50  1  0
 50 51  1  0
 51 52  1  0
 52 53  1  0
 53 54  1  0
 54 55  1  0
 55 56  1  0
 56 57  1  0
 57 58  1  0
 58 59  1  0
 59 60  1  0
 60 61  1  0
 61 62  1  0
 62 63  1  0
 63 64  1  0
 64 65  1  0
 65 66  1  0
 66 67  1  0
 67 68  1  0
 68 69  1  0
 69 70  1  0
 70 71  1  0
 71 72  1  0
 72 73  1  0
 73 74  1  0
 74 75  1  0
 75 76  1  0
 76 77  1  0
 77 78  1  0
 78 79  2  0
 79 80  1  0
 80 81  2  0
 81 82  1  0
 82 83  2  0
 83  2  1  0
 83 60  1  0
M  END
>  <Title>  (569) 
idAATYgen14

$$$$

     RDKit          2D

 14 15  0  0  0  0  0  0  0  0999 V2000
    5.0260    1.2990    0.0000 C   0  0  0  0  0  0  0  0  0  0  0  0
    3.5260    1.2990    0.0000 C   0  0  0  0  0  0  0  0  0  0  0  0
    2.7760    2.5981    0.0000 O   0  0  0  0  0  0  0  0  0  0  0  0
    2.7760    0.0000    0.0000 N   0  0  0  0  0  0  0  0  0  0  0  0
    1.2760    0.0000    0.0000 C   0  0  0  0  0  0  0  0  0  0  0  0
    0.3943    1.2135    0.0000 N   0  0  0  0  0  0  0  0  0  0  0  0
   -1.0323    0.7500    0.0000 N   0  0  0  0  0  0  0  0  0  0  0  0
   -1.0323   -0.7500    0.0000 N   0  0  0  0  0  0  0  0  0  0  0  0
    0.3943   -1.2135    0.0000 N   0  0  0  0  0  0  0  0  0  0  0  0
    0.8578   -2.6401    0.0000 N   0  0  0  0  0  0  0  0  0  0  0  0
   -0.0239   -3.8536    0.0000 C   0  0  0  0  0  0  0  0  0  0  0  0
    0.8578   -5.0672    0.0000 C   0  0  0  0  0  0  0  0  0  0  0  0
    2.2844   -4.6036    0.0000 C   0  0  0  0  0  0  0  0  0  0  0  0
    2.2844   -3.1036    0.0000 C   0  0  0  0  0  0  0  0  0  0  0  0
  1  2  1  0
  2  3  2  0
  2  4  1  0
  4  5  1  0
  5  6  2  0
  6  7  1  0
  7  8  2  0
  8  9  1  0
  9 10  1  0
 10 11  1  0
 11 12  2  0
 12 13  1  0
 13 14  2  0
  9  5  1  0
 14 10  1  0
M  END
>  <Title>  (570) 
idAATZgen14

$$$$

     RDKit          2D

 40 44  0  0  0  0  0  0  0  0999 V2000
   -7.5000   -5.1962    0.0000 C   0  0  0  0  0  0  0  0  0  0  0  0
   -6.0000   -5.1962    0.0000 C   0  0  0  0  0  0  0  0  0  0  0  0
   -5.2500   -6.4952    0.0000 C   0  0  0  0  0  0  0  0  0  0  0  0
   -5.2500   -3.8971    0.0000 C   0  0  0  0  0  0  0  0  0  0  0  0
   -3.7500   -3.8971    0.0000 C   0  0  0  0  0  0  0  0  0  0  0  0
   -3.0000   -5.1962    0.0000 O   0  0  0  0  0  0  0  0  0  0  0  0
   -3.0000   -2.5981    0.0000 N   0  0  0  0  0  0  0  0  0  0  0  0
   -1.5000   -2.5981    0.0000 C   0  0  0  0  0  0  0  0  0  0  0  0
   -0.7500   -3.8971    0.0000 C   0  0  0  0  0  0  0  0  0  0  0  0
    0.7500   -3.8971    0.0000 C   0  0  0  0  0  0  0  0  0  0  0  0
    1.5000   -2.5981    0.0000 C   0  0  0  0  0  0  0  0  0  0  0  0
    3.0000   -2.5981    0.0000 C   0  0  0  0  0  0  0  0  0  0  0  0
    3.7500   -1.2990    0.0000 O   0  0  0  0  0  0  0  0  0  0  0  0
    3.7500   -3.8971    0.0000 N   0  0  0  0  0  0  0  0  0  0  0  0
    5.2500   -3.8971    0.0000 C   0  0  0  0  0  0  0  0  0  0  0  0
    6.1317   -2.6836    0.0000 N   0  0  0  0  0  0  0  0  0  0  0  0
    7.5583   -3.1471    0.0000 N   0  0  0  0  0  0  0  0  0  0  0  0
    7.5583   -4.6471    0.0000 N   0  0  0  0  0  0  0  0  0  0  0  0
    6.1317   -5.1106    0.0000 N   0  0  0  0  0  0  0  0  0  0  0  0
    5.6682   -6.5372    0.0000 N   0  0  0  0  0  0  0  0  0  0  0  0
    6.5498   -7.7508    0.0000 C   0  0  0  0  0  0  0  0  0  0  0  0
    5.6682   -8.9643    0.0000 C   0  0  0  0  0  0  0  0  0  0  0  0
    4.2416   -8.5008    0.0000 N   0  0  0  0  0  0  0  0  0  0  0  0
    3.0280   -9.3824    0.0000 C   0  0  0  0  0  0  0  0  0  0  0  0
    3.1848  -10.8742    0.0000 O   0  0  0  0  0  0  0  0  0  0  0  0
    1.6577   -8.7723    0.0000 N   0  0  0  0  0  0  0  0  0  0  0  0
    0.4442   -9.6540    0.0000 C   0  0  0  0  0  0  0  0  0  0  0  0
   -0.9261   -9.0439    0.0000 N   0  0  0  0  0  0  0  0  0  0  0  0
   -2.1396   -9.9256    0.0000 N   0  0  0  0  0  0  0  0  0  0  0  0
   -1.9829  -11.4174    0.0000 N   0  0  0  0  0  0  0  0  0  0  0  0
   -0.6125  -12.0275    0.0000 N   0  0  0  0  0  0  0  0  0  0  0  0
    0.6010  -11.1458    0.0000 N   0  0  0  0  0  0  0  0  0  0  0  0
    4.2416   -7.0008    0.0000 C   0  0  0  0  0  0  0  0  0  0  0  0
    3.0280   -6.1191    0.0000 O   0  0  0  0  0  0  0  0  0  0  0  0
    0.7500   -1.2990    0.0000 C   0  0  0  0  0  0  0  0  0  0  0  0
    1.5000    0.0000    0.0000 C   0  0  0  0  0  0  0  0  0  0  0  0
    0.7500    1.2990    0.0000 C   0  0  0  0  0  0  0  0  0  0  0  0
   -0.7500    1.2990    0.0000 C   0  0  0  0  0  0  0  0  0  0  0  0
   -1.5000    0.0000    0.0000 C   0  0  0  0  0  0  0  0  0  0  0  0
   -0.7500   -1.2990    0.0000 C   0  0  0  0  0  0  0  0  0  0  0  0
  1  2  1  0
  2  3  1  0
  2  4  1  0
  4  5  1  0
  5  6  2  0
  5  7  1  0
  7  8  1  0
  8  9  2  0
  9 10  1  0
 10 11  2  0
 11 12  1  0
 12 13  2  0
 12 14  1  0
 14 15  1  0
 15 16  2  0
 16 17  1  0
 17 18  2  0
 18 19  1  0
 19 20  1  0
 20 21  1  0
 21 22  1  0
 22 23  1  0
 23 24  1  0
 24 25  2  0
 24 26  1  0
 26 27  1  0
 27 28  2  0
 28 29  1  0
 29 30  2  0
 30 31  1  0
 31 32  2  0
 23 33  1  0
 33 34  2  0
 11 35  1  0
 35 36  2  0
 36 37  1  0
 37 38  2  0
 38 39  1  0
 39 40  2  0
 40  8  1  0
 19 15  1  0
 33 20  1  0
 40 35  1  0
 32 27  1  0
M  END
>  <Title>  (571) 
idAAUAgen14

$$$$

     RDKit          2D

  7  6  0  0  0  0  0  0  0  0999 V2000
    0.0000    0.0000    0.0000 C   0  0  0  0  0  0  0  0  0  0  0  0
    1.2990    0.7500    0.0000 C   0  0  0  0  0  0  0  0  0  0  0  0
    2.5981   -0.0000    0.0000 C   0  0  0  0  0  0  0  0  0  0  0  0
    3.8971    0.7500    0.0000 C   0  0  0  0  0  0  0  0  0  0  0  0
    5.1962   -0.0000    0.0000 C   0  0  0  0  0  0  0  0  0  0  0  0
    6.4952    0.7500    0.0000 C   0  0  0  0  0  0  0  0  0  0  0  0
    7.7942    1.5000    0.0000 N   0  0  0  0  0  0  0  0  0  0  0  0
  1  2  2  0
  2  3  1  0
  3  4  1  0
  4  5  1  0
  5  6  1  0
  6  7  3  0
M  END
>  <Title>  (572) 
idAAUBgen14

$$$$

     RDKit          2D

  8  8  0  0  0  0  0  0  0  0999 V2000
    5.0260   -1.2990    0.0000 C   0  0  0  0  0  0  0  0  0  0  0  0
    3.5260   -1.2990    0.0000 C   0  0  0  0  0  0  0  0  0  0  0  0
    2.7760    0.0000    0.0000 C   0  0  0  0  0  0  0  0  0  0  0  0
    1.2760    0.0000    0.0000 C   0  0  0  0  0  0  0  0  0  0  0  0
    0.3943    1.2135    0.0000 C   0  0  0  0  0  0  0  0  0  0  0  0
   -1.0323    0.7500    0.0000 C   0  0  0  0  0  0  0  0  0  0  0  0
   -1.0323   -0.7500    0.0000 C   0  0  0  0  0  0  0  0  0  0  0  0
    0.3943   -1.2135    0.0000 C   0  0  0  0  0  0  0  0  0  0  0  0
  1  2  1  0
  2  3  1  0
  3  4  1  0
  4  5  1  0
  5  6  1  0
  6  7  1  0
  7  8  1  0
  8  4  1  0
M  END
>  <Title>  (573) 
idAAUCgen14

$$$$

     RDKit          2D

 12 12  0  0  0  0  0  0  0  0999 V2000
    8.0260   -3.8971    0.0000 C   0  0  0  0  0  0  0  0  0  0  0  0
    7.2760   -2.5981    0.0000 C   0  0  0  0  0  0  0  0  0  0  0  0
    5.7760   -2.5981    0.0000 C   0  0  0  0  0  0  0  0  0  0  0  0
    5.0260   -1.2990    0.0000 C   0  0  0  0  0  0  0  0  0  0  0  0
    5.7760    0.0000    0.0000 O   0  0  0  0  0  0  0  0  0  0  0  0
    3.5260   -1.2990    0.0000 C   0  0  0  0  0  0  0  0  0  0  0  0
    2.7760    0.0000    0.0000 C   0  0  0  0  0  0  0  0  0  0  0  0
    1.2760    0.0000    0.0000 N   0  0  0  0  0  0  0  0  0  0  0  0
    0.3943    1.2135    0.0000 C   0  0  0  0  0  0  0  0  0  0  0  0
   -1.0323    0.7500    0.0000 C   0  0  0  0  0  0  0  0  0  0  0  0
   -1.0323   -0.7500    0.0000 C   0  0  0  0  0  0  0  0  0  0  0  0
    0.3943   -1.2135    0.0000 C   0  0  0  0  0  0  0  0  0  0  0  0
  1  2  1  0
  2  3  1  0
  3  4  1  0
  4  5  1  0
  4  6  1  0
  6  7  1  0
  7  8  1  0
  8  9  1  0
  9 10  2  0
 10 11  1  0
 11 12  2  0
 12  8  1  0
M  END
>  <Title>  (574) 
idAAUDgen14

$$$$

     RDKit          2D

 26 29  0  0  0  0  0  0  0  0999 V2000
   -3.0000   -2.5981    0.0000 C   0  0  0  0  0  0  0  0  0  0  0  0
   -1.5000   -2.5981    0.0000 C   0  0  0  0  0  0  0  0  0  0  0  0
   -0.7500   -3.8971    0.0000 C   0  0  0  0  0  0  0  0  0  0  0  0
    0.7500   -3.8971    0.0000 C   0  0  0  0  0  0  0  0  0  0  0  0
    1.5000   -2.5981    0.0000 C   0  0  0  0  0  0  0  0  0  0  0  0
    3.0000   -2.5981    0.0000 N   0  0  0  0  0  0  0  0  0  0  0  0
    3.8817   -1.3846    0.0000 C   0  0  0  0  0  0  0  0  0  0  0  0
    5.3083   -1.8481    0.0000 C   0  0  0  0  0  0  0  0  0  0  0  0
    5.3083   -3.3481    0.0000 C   0  0  0  0  0  0  0  0  0  0  0  0
    6.5218   -4.2298    0.0000 C   0  0  0  0  0  0  0  0  0  0  0  0
    7.8921   -3.6196    0.0000 O   0  0  0  0  0  0  0  0  0  0  0  0
    6.3650   -5.7215    0.0000 N   0  0  0  0  0  0  0  0  0  0  0  0
    7.5785   -6.6032    0.0000 C   0  0  0  0  0  0  0  0  0  0  0  0
    7.4217   -8.0950    0.0000 N   0  0  0  0  0  0  0  0  0  0  0  0
    8.6353   -8.9767    0.0000 N   0  0  0  0  0  0  0  0  0  0  0  0
   10.0056   -8.3666    0.0000 N   0  0  0  0  0  0  0  0  0  0  0  0
   10.1624   -6.8748    0.0000 N   0  0  0  0  0  0  0  0  0  0  0  0
    8.9488   -5.9931    0.0000 N   0  0  0  0  0  0  0  0  0  0  0  0
    3.8817   -3.8116    0.0000 C   0  0  0  0  0  0  0  0  0  0  0  0
    3.4182   -5.2382    0.0000 O   0  0  0  0  0  0  0  0  0  0  0  0
    0.7500   -1.2990    0.0000 C   0  0  0  0  0  0  0  0  0  0  0  0
    1.5000    0.0000    0.0000 C   0  0  0  0  0  0  0  0  0  0  0  0
    0.7500    1.2990    0.0000 C   0  0  0  0  0  0  0  0  0  0  0  0
   -0.7500    1.2990    0.0000 C   0  0  0  0  0  0  0  0  0  0  0  0
   -1.5000    0.0000    0.0000 C   0  0  0  0  0  0  0  0  0  0  0  0
   -0.7500   -1.2990    0.0000 C   0  0  0  0  0  0  0  0  0  0  0  0
  1  2  1  0
  2  3  2  0
  3  4  1  0
  4  5  1  0
  5  6  1  0
  6  7  1  0
  7  8  1  0
  8  9  2  0
  9 10  1  0
 10 11  2  0
 10 12  1  0
 12 13  1  0
 13 14  2  0
 14 15  1  0
 15 16  2  0
 16 17  1  0
 17 18  2  0
  9 19  1  0
 19 20  2  0
  5 21  1  0
 21 22  2  0
 22 23  1  0
 23 24  2  0
 24 25  1  0
 25 26  2  0
 26  2  1  0
 19  6  1  0
 26 21  1  0
 18 13  1  0
M  END
>  <Title>  (575) 
idAAUEgen14

$$$$

     RDKit          2D

  7  7  0  0  0  0  0  0  0  0999 V2000
    3.0000    0.0000    0.0000 C   0  0  0  0  0  0  0  0  0  0  0  0
    1.5000    0.0000    0.0000 C   0  0  0  0  0  0  0  0  0  0  0  0
    0.7500   -1.2990    0.0000 C   0  0  0  0  0  0  0  0  0  0  0  0
   -0.7500   -1.2990    0.0000 C   0  0  0  0  0  0  0  0  0  0  0  0
   -1.5000    0.0000    0.0000 C   0  0  0  0  0  0  0  0  0  0  0  0
   -0.7500    1.2990    0.0000 C   0  0  0  0  0  0  0  0  0  0  0  0
    0.7500    1.2990    0.0000 C   0  0  0  0  0  0  0  0  0  0  0  0
  1  2  1  0
  2  3  2  0
  3  4  1  0
  4  5  2  0
  5  6  1  0
  6  7  2  0
  7  2  1  0
M  END
>  <Title>  (576) 
idAAUFgen14

$$$$

     RDKit          2D

  9  8  0  0  0  0  0  0  0  0999 V2000
    0.0000    0.0000    0.0000 C   0  0  0  0  0  0  0  0  0  0  0  0
    1.2990    0.7500    0.0000 C   0  0  0  0  0  0  0  0  0  0  0  0
    2.5981   -0.0000    0.0000 C   0  0  0  0  0  0  0  0  0  0  0  0
    3.8971    0.7500    0.0000 N   0  0  0  0  0  0  0  0  0  0  0  0
    5.1962   -0.0000    0.0000 C   0  0  0  0  0  0  0  0  0  0  0  0
    5.1962   -1.5000    0.0000 O   0  0  0  0  0  0  0  0  0  0  0  0
    6.4952    0.7500    0.0000 C   0  0  0  0  0  0  0  0  0  0  0  0
    7.7942   -0.0000    0.0000 C   0  0  0  0  0  0  0  0  0  0  0  0
    9.0933    0.7500    0.0000 C   0  0  0  0  0  0  0  0  0  0  0  0
  1  2  1  0
  2  3  1  0
  3  4  1  0
  4  5  1  0
  5  6  2  0
  5  7  1  0
  7  8  1  0
  8  9  1  0
M  END
>  <Title>  (577) 
idAAUGgen14

$$$$

     RDKit          2D

 15 14  0  0  0  0  0  0  0  0999 V2000
    0.0000    0.0000    0.0000 C   0  0  0  0  0  0  0  0  0  0  0  0
    1.2990    0.7500    0.0000 C   0  0  0  0  0  0  0  0  0  0  0  0
    2.5981   -0.0000    0.0000 C   0  0  0  0  0  0  0  0  0  0  0  0
    1.2990    2.2500    0.0000 C   0  0  0  0  0  0  0  0  0  0  0  0
    2.5981    3.0000    0.0000 C   0  0  0  0  0  0  0  0  0  0  0  0
    2.5981    4.5000    0.0000 C   0  0  0  0  0  0  0  0  0  0  0  0
    1.2990    5.2500    0.0000 O   0  0  0  0  0  0  0  0  0  0  0  0
    3.8971    5.2500    0.0000 N   0  0  0  0  0  0  0  0  0  0  0  0
    3.8971    6.7500    0.0000 C   0  0  0  0  0  0  0  0  0  0  0  0
    5.1962    7.5000    0.0000 C   0  0  0  0  0  0  0  0  0  0  0  0
    5.1962    9.0000    0.0000 C   0  0  0  0  0  0  0  0  0  0  0  0
    6.4952    9.7500    0.0000 N   0  0  0  0  0  0  0  0  0  0  0  0
    6.4952   11.2500    0.0000 C   0  0  0  0  0  0  0  0  0  0  0  0
    7.7942   12.0000    0.0000 C   0  0  0  0  0  0  0  0  0  0  0  0
    7.7942   13.5000    0.0000 N   0  0  0  0  0  0  0  0  0  0  0  0
  1  2  1  0
  2  3  1  0
  2  4  1  0
  4  5  1  0
  5  6  1  0
  6  7  2  0
  6  8  1  0
  8  9  1  0
  9 10  1  0
 10 11  2  3
 11 12  1  0
 12 13  1  0
 13 14  1  0
 14 15  1  0
M  END
>  <Title>  (578) 
idAAUHgen14

$$$$

     RDKit          2D

 38 42  0  0  0  0  0  0  0  0999 V2000
   -3.1965   -1.7857    0.0000 C   0  0  0  0  0  0  0  0  0  0  0  0
   -1.8107   -2.3597    0.0000 C   0  0  0  0  0  0  0  0  0  0  0  0
   -1.8107   -3.8597    0.0000 C   0  0  0  0  0  0  0  0  0  0  0  0
   -0.7500   -4.9204    0.0000 C   0  0  0  0  0  0  0  0  0  0  0  0
    0.7500   -4.9204    0.0000 C   0  0  0  0  0  0  0  0  0  0  0  0
    1.3240   -6.3062    0.0000 C   0  0  0  0  0  0  0  0  0  0  0  0
    2.8112   -6.5020    0.0000 O   0  0  0  0  0  0  0  0  0  0  0  0
    0.4109   -7.4962    0.0000 N   0  0  0  0  0  0  0  0  0  0  0  0
    0.9849   -8.8820    0.0000 C   0  0  0  0  0  0  0  0  0  0  0  0
    2.4435   -9.2322    0.0000 N   0  0  0  0  0  0  0  0  0  0  0  0
    2.5612  -10.7276    0.0000 N   0  0  0  0  0  0  0  0  0  0  0  0
    1.1753  -11.3016    0.0000 N   0  0  0  0  0  0  0  0  0  0  0  0
    0.2012  -10.1610    0.0000 N   0  0  0  0  0  0  0  0  0  0  0  0
   -1.2942  -10.2787    0.0000 C   0  0  0  0  0  0  0  0  0  0  0  0
   -2.0780  -11.5576    0.0000 C   0  0  0  0  0  0  0  0  0  0  0  0
   -3.5365  -11.2075    0.0000 C   0  0  0  0  0  0  0  0  0  0  0  0
   -3.6542   -9.7121    0.0000 C   0  0  0  0  0  0  0  0  0  0  0  0
   -4.9332   -8.9283    0.0000 O   0  0  0  0  0  0  0  0  0  0  0  0
   -4.8939   -7.4289    0.0000 C   0  0  0  0  0  0  0  0  0  0  0  0
   -3.5757   -6.7131    0.0000 O   0  0  0  0  0  0  0  0  0  0  0  0
   -6.1729   -6.6451    0.0000 N   0  0  0  0  0  0  0  0  0  0  0  0
   -6.1336   -5.1456    0.0000 C   0  0  0  0  0  0  0  0  0  0  0  0
   -4.8154   -4.4299    0.0000 N   0  0  0  0  0  0  0  0  0  0  0  0
   -4.7761   -2.9304    0.0000 N   0  0  0  0  0  0  0  0  0  0  0  0
   -6.0551   -2.1467    0.0000 N   0  0  0  0  0  0  0  0  0  0  0  0
   -7.3733   -2.8624    0.0000 N   0  0  0  0  0  0  0  0  0  0  0  0
   -7.4126   -4.3619    0.0000 N   0  0  0  0  0  0  0  0  0  0  0  0
   -2.2684   -9.1381    0.0000 C   0  0  0  0  0  0  0  0  0  0  0  0
   -1.9182   -7.6795    0.0000 O   0  0  0  0  0  0  0  0  0  0  0  0
    1.8107   -3.8597    0.0000 C   0  0  0  0  0  0  0  0  0  0  0  0
    3.1965   -4.4337    0.0000 O   0  0  0  0  0  0  0  0  0  0  0  0
    1.8107   -2.3597    0.0000 O   0  0  0  0  0  0  0  0  0  0  0  0
    0.7500   -1.2990    0.0000 C   0  0  0  0  0  0  0  0  0  0  0  0
    1.5000    0.0000    0.0000 C   0  0  0  0  0  0  0  0  0  0  0  0
    0.7500    1.2990    0.0000 C   0  0  0  0  0  0  0  0  0  0  0  0
   -0.7500    1.2990    0.0000 C   0  0  0  0  0  0  0  0  0  0  0  0
   -1.5000    0.0000    0.0000 C   0  0  0  0  0  0  0  0  0  0  0  0
   -0.7500   -1.2990    0.0000 C   0  0  0  0  0  0  0  0  0  0  0  0
  1  2  1  0
  2  3  1  0
  3  4  2  0
  4  5  1  0
  5  6  1  0
  6  7  2  0
  6  8  1  0
  8  9  1  0
  9 10  2  0
 10 11  1  0
 11 12  2  0
 12 13  1  0
 13 14  1  0
 14 15  2  0
 15 16  1  0
 16 17  2  0
 17 18  1  0
 18 19  1  0
 19 20  2  0
 19 21  1  0
 21 22  1  0
 22 23  2  0
 23 24  1  0
 24 25  2  0
 25 26  1  0
 26 27  2  0
 17 28  1  0
 28 29  2  0
  5 30  1  0
 30 31  2  0
 30 32  1  0
 32 33  1  0
 33 34  2  0
 34 35  1  0
 35 36  2  0
 36 37  1  0
 37 38  2  0
 38  2  1  0
 13  9  1  0
 28 14  1  0
 38 33  1  0
 27 22  1  0
M  END
>  <Title>  (579) 
idAAUIgen14

$$$$

     RDKit          2D

 49 55  0  0  0  0  0  0  0  0999 V2000
    9.3456   -3.3183    0.0000 C   0  0  0  0  0  0  0  0  0  0  0  0
    8.1062   -4.1633    0.0000 C   0  0  0  0  0  0  0  0  0  0  0  0
    8.2183   -5.6591    0.0000 C   0  0  0  0  0  0  0  0  0  0  0  0
    9.5698   -6.3099    0.0000 C   0  0  0  0  0  0  0  0  0  0  0  0
    6.9790   -6.5041    0.0000 N   0  0  0  0  0  0  0  0  0  0  0  0
    5.6275   -5.8532    0.0000 C   0  0  0  0  0  0  0  0  0  0  0  0
    5.5154   -4.3574    0.0000 O   0  0  0  0  0  0  0  0  0  0  0  0
    4.3881   -6.6982    0.0000 N   0  0  0  0  0  0  0  0  0  0  0  0
    3.0367   -6.0474    0.0000 C   0  0  0  0  0  0  0  0  0  0  0  0
    3.3705   -4.5850    0.0000 C   0  0  0  0  0  0  0  0  0  0  0  0
    3.0367   -3.1226    0.0000 C   0  0  0  0  0  0  0  0  0  0  0  0
    2.1015   -1.9499    0.0000 C   0  0  0  0  0  0  0  0  0  0  0  0
    3.0367   -0.7771    0.0000 O   0  0  0  0  0  0  0  0  0  0  0  0
    4.5199   -1.0007    0.0000 C   0  0  0  0  0  0  0  0  0  0  0  0
    5.0679   -2.3970    0.0000 C   0  0  0  0  0  0  0  0  0  0  0  0
    6.5512   -2.6206    0.0000 C   0  0  0  0  0  0  0  0  0  0  0  0
    7.4864   -1.4478    0.0000 C   0  0  0  0  0  0  0  0  0  0  0  0
    6.9384   -0.0515    0.0000 C   0  0  0  0  0  0  0  0  0  0  0  0
    5.4552    0.1721    0.0000 C   0  0  0  0  0  0  0  0  0  0  0  0
    0.7500   -1.2990    0.0000 C   0  0  0  0  0  0  0  0  0  0  0  0
    1.5000    0.0000    0.0000 C   0  0  0  0  0  0  0  0  0  0  0  0
    0.7500    1.2990    0.0000 C   0  0  0  0  0  0  0  0  0  0  0  0
   -0.7500    1.2990    0.0000 C   0  0  0  0  0  0  0  0  0  0  0  0
   -1.5000    0.0000    0.0000 C   0  0  0  0  0  0  0  0  0  0  0  0
   -0.7500   -1.2990    0.0000 C   0  0  0  0  0  0  0  0  0  0  0  0
   -2.1015   -1.9499    0.0000 C   0  0  0  0  0  0  0  0  0  0  0  0
   -2.6495   -0.5536    0.0000 C   0  0  0  0  0  0  0  0  0  0  0  0
   -4.1327   -0.3300    0.0000 C   0  0  0  0  0  0  0  0  0  0  0  0
   -5.0679   -1.5027    0.0000 C   0  0  0  0  0  0  0  0  0  0  0  0
   -4.5199   -2.8990    0.0000 C   0  0  0  0  0  0  0  0  0  0  0  0
   -3.0367   -3.1226    0.0000 C   0  0  0  0  0  0  0  0  0  0  0  0
   -3.3705   -4.5850    0.0000 C   0  0  0  0  0  0  0  0  0  0  0  0
   -4.8038   -4.1429    0.0000 C   0  0  0  0  0  0  0  0  0  0  0  0
   -5.9034   -5.1631    0.0000 C   0  0  0  0  0  0  0  0  0  0  0  0
   -5.5696   -6.6255    0.0000 C   0  0  0  0  0  0  0  0  0  0  0  0
   -4.1363   -7.0677    0.0000 C   0  0  0  0  0  0  0  0  0  0  0  0
   -3.0367   -6.0474    0.0000 C   0  0  0  0  0  0  0  0  0  0  0  0
   -2.1015   -7.2201    0.0000 C   0  0  0  0  0  0  0  0  0  0  0  0
   -3.3408   -8.0651    0.0000 C   0  0  0  0  0  0  0  0  0  0  0  0
   -3.2287   -9.5609    0.0000 C   0  0  0  0  0  0  0  0  0  0  0  0
   -1.8773  -10.2118    0.0000 C   0  0  0  0  0  0  0  0  0  0  0  0
   -0.6379   -9.3668    0.0000 C   0  0  0  0  0  0  0  0  0  0  0  0
   -0.7500   -7.8710    0.0000 C   0  0  0  0  0  0  0  0  0  0  0  0
    0.7500   -7.8710    0.0000 C   0  0  0  0  0  0  0  0  0  0  0  0
    0.6379   -9.3668    0.0000 C   0  0  0  0  0  0  0  0  0  0  0  0
    1.8773  -10.2118    0.0000 C   0  0  0  0  0  0  0  0  0  0  0  0
    3.2287   -9.5609    0.0000 C   0  0  0  0  0  0  0  0  0  0  0  0
    3.3408   -8.0651    0.0000 C   0  0  0  0  0  0  0  0  0  0  0  0
    2.1015   -7.2201    0.0000 C   0  0  0  0  0  0  0  0  0  0  0  0
  1  2  1  0
  2  3  1  0
  3  4  1  0
  3  5  1  0
  5  6  1  0
  6  7  2  0
  6  8  1  0
  8  9  1  0
  9 10  2  0
 10 11  1  0
 11 12  2  0
 12 13  1  0
 13 14  1  0
 14 15  2  0
 15 16  1  0
 16 17  2  0
 17 18  1  0
 18 19  2  0
 12 20  1  0
 20 21  2  0
 21 22  1  0
 22 23  2  0
 23 24  1  0
 24 25  2  0
 25 26  1  0
 26 27  2  0
 27 28  1  0
 28 29  2  0
 29 30  1  0
 30 31  2  0
 31 32  1  0
 32 33  2  0
 33 34  1  0
 34 35  2  0
 35 36  1  0
 36 37  2  0
 37 38  1  0
 38 39  2  0
 39 40  1  0
 40 41  2  0
 41 42  1  0
 42 43  2  0
 43 44  1  0
 44 45  2  0
 45 46  1  0
 46 47  2  0
 47 48  1  0
 48 49  2  0
 49  9  1  0
 19 14  1  0
 25 20  1  0
 31 26  1  0
 37 32  1  0
 43 38  1  0
 49 44  1  0
M  END
>  <Title>  (580) 
idAAUJgen14

$$$$

     RDKit          2D

 37 41  0  0  0  0  0  0  0  0999 V2000
   -3.1965   -1.7857    0.0000 C   0  0  0  0  0  0  0  0  0  0  0  0
   -1.8107   -2.3597    0.0000 C   0  0  0  0  0  0  0  0  0  0  0  0
   -1.8107   -3.8597    0.0000 C   0  0  0  0  0  0  0  0  0  0  0  0
   -0.7500   -4.9204    0.0000 C   0  0  0  0  0  0  0  0  0  0  0  0
    0.7500   -4.9204    0.0000 C   0  0  0  0  0  0  0  0  0  0  0  0
    1.8107   -3.8597    0.0000 C   0  0  0  0  0  0  0  0  0  0  0  0
    1.8107   -2.3597    0.0000 C   0  0  0  0  0  0  0  0  0  0  0  0
    3.1965   -1.7857    0.0000 C   0  0  0  0  0  0  0  0  0  0  0  0
    3.3923   -0.2985    0.0000 O   0  0  0  0  0  0  0  0  0  0  0  0
    4.3865   -2.6988    0.0000 N   0  0  0  0  0  0  0  0  0  0  0  0
    5.7723   -2.1248    0.0000 C   0  0  0  0  0  0  0  0  0  0  0  0
    6.1225   -0.6662    0.0000 N   0  0  0  0  0  0  0  0  0  0  0  0
    7.6179   -0.5485    0.0000 N   0  0  0  0  0  0  0  0  0  0  0  0
    8.1919   -1.9344    0.0000 N   0  0  0  0  0  0  0  0  0  0  0  0
    7.0513   -2.9085    0.0000 N   0  0  0  0  0  0  0  0  0  0  0  0
    7.1690   -4.4039    0.0000 C   0  0  0  0  0  0  0  0  0  0  0  0
    8.4479   -5.1877    0.0000 C   0  0  0  0  0  0  0  0  0  0  0  0
    8.0978   -6.6462    0.0000 C   0  0  0  0  0  0  0  0  0  0  0  0
    6.6024   -6.7639    0.0000 C   0  0  0  0  0  0  0  0  0  0  0  0
    5.8186   -8.0429    0.0000 O   0  0  0  0  0  0  0  0  0  0  0  0
    4.3192   -8.0036    0.0000 C   0  0  0  0  0  0  0  0  0  0  0  0
    3.6034   -6.6854    0.0000 O   0  0  0  0  0  0  0  0  0  0  0  0
    3.5354   -9.2826    0.0000 N   0  0  0  0  0  0  0  0  0  0  0  0
    2.0359   -9.2433    0.0000 C   0  0  0  0  0  0  0  0  0  0  0  0
    1.3202   -7.9251    0.0000 N   0  0  0  0  0  0  0  0  0  0  0  0
   -0.1793   -7.8858    0.0000 N   0  0  0  0  0  0  0  0  0  0  0  0
   -0.9630   -9.1648    0.0000 N   0  0  0  0  0  0  0  0  0  0  0  0
   -0.2473  -10.4830    0.0000 N   0  0  0  0  0  0  0  0  0  0  0  0
    1.2522  -10.5223    0.0000 N   0  0  0  0  0  0  0  0  0  0  0  0
    6.0284   -5.3781    0.0000 C   0  0  0  0  0  0  0  0  0  0  0  0
    4.5698   -5.0279    0.0000 O   0  0  0  0  0  0  0  0  0  0  0  0
    0.7500   -1.2990    0.0000 C   0  0  0  0  0  0  0  0  0  0  0  0
    1.5000    0.0000    0.0000 C   0  0  0  0  0  0  0  0  0  0  0  0
    0.7500    1.2990    0.0000 C   0  0  0  0  0  0  0  0  0  0  0  0
   -0.7500    1.2990    0.0000 C   0  0  0  0  0  0  0  0  0  0  0  0
   -1.5000    0.0000    0.0000 C   0  0  0  0  0  0  0  0  0  0  0  0
   -0.7500   -1.2990    0.0000 C   0  0  0  0  0  0  0  0  0  0  0  0
  1  2  1  0
  2  3  2  0
  3  4  1  0
  4  5  1  0
  5  6  1  0
  6  7  1  0
  7  8  1  0
  8  9  2  0
  8 10  1  0
 10 11  1  0
 11 12  2  0
 12 13  1  0
 13 14  2  0
 14 15  1  0
 15 16  1  0
 16 17  2  0
 17 18  1  0
 18 19  2  0
 19 20  1  0
 20 21  1  0
 21 22  2  0
 21 23  1  0
 23 24  1  0
 24 25  2  0
 25 26  1  0
 26 27  2  0
 27 28  1  0
 28 29  2  0
 19 30  1  0
 30 31  2  0
  7 32  1  0
 32 33  2  0
 33 34  1  0
 34 35  2  0
 35 36  1  0
 36 37  2  0
 37  2  1  0
 15 11  1  0
 30 16  1  0
 37 32  1  0
 29 24  1  0
M  END
>  <Title>  (581) 
idAAUKgen14

$$$$

     RDKit          2D

  9  9  0  0  0  0  0  0  0  0999 V2000
    3.7500   -1.2990    0.0000 C   0  0  0  0  0  0  0  0  0  0  0  0
    3.0000    0.0000    0.0000 C   0  0  0  0  0  0  0  0  0  0  0  0
    3.7500    1.2990    0.0000 O   0  0  0  0  0  0  0  0  0  0  0  0
    1.5000    0.0000    0.0000 N   0  0  0  0  0  0  0  0  0  0  0  0
    0.7500   -1.2990    0.0000 C   0  0  0  0  0  0  0  0  0  0  0  0
   -0.7500   -1.2990    0.0000 C   0  0  0  0  0  0  0  0  0  0  0  0
   -1.5000    0.0000    0.0000 C   0  0  0  0  0  0  0  0  0  0  0  0
   -0.7500    1.2990    0.0000 C   0  0  0  0  0  0  0  0  0  0  0  0
    0.7500    1.2990    0.0000 N   0  0  0  0  0  0  0  0  0  0  0  0
  1  2  1  0
  2  3  2  0
  2  4  1  0
  4  5  1  0
  5  6  2  0
  6  7  1  0
  7  8  1  0
  8  9  2  0
  9  4  1  0
M  END
>  <Title>  (582) 
idAAULgen14

$$$$

     RDKit          2D

 22 25  0  0  0  0  0  0  0  0999 V2000
    2.3737   -6.1885    0.0000 C   0  0  0  0  0  0  0  0  0  0  0  0
    1.4095   -5.0395    0.0000 C   0  0  0  0  0  0  0  0  0  0  0  0
    2.1595   -3.7404    0.0000 C   0  0  0  0  0  0  0  0  0  0  0  0
    1.8991   -2.2632    0.0000 N   0  0  0  0  0  0  0  0  0  0  0  0
    0.7500   -1.2990    0.0000 C   0  0  0  0  0  0  0  0  0  0  0  0
    1.5000    0.0000    0.0000 C   0  0  0  0  0  0  0  0  0  0  0  0
    0.7500    1.2990    0.0000 C   0  0  0  0  0  0  0  0  0  0  0  0
   -0.7500    1.2990    0.0000 C   0  0  0  0  0  0  0  0  0  0  0  0
   -1.5000    0.0000    0.0000 C   0  0  0  0  0  0  0  0  0  0  0  0
   -0.7500   -1.2990    0.0000 C   0  0  0  0  0  0  0  0  0  0  0  0
   -1.8991   -2.2632    0.0000 C   0  0  0  0  0  0  0  0  0  0  0  0
   -3.0481   -1.2990    0.0000 C   0  0  0  0  0  0  0  0  0  0  0  0
   -4.4577   -1.8121    0.0000 C   0  0  0  0  0  0  0  0  0  0  0  0
   -4.7181   -3.2893    0.0000 C   0  0  0  0  0  0  0  0  0  0  0  0
   -3.5691   -4.2535    0.0000 C   0  0  0  0  0  0  0  0  0  0  0  0
   -2.1595   -3.7404    0.0000 C   0  0  0  0  0  0  0  0  0  0  0  0
   -1.4095   -5.0395    0.0000 C   0  0  0  0  0  0  0  0  0  0  0  0
   -2.5586   -6.0037    0.0000 C   0  0  0  0  0  0  0  0  0  0  0  0
   -2.2981   -7.4809    0.0000 C   0  0  0  0  0  0  0  0  0  0  0  0
   -0.8886   -7.9939    0.0000 C   0  0  0  0  0  0  0  0  0  0  0  0
    0.2605   -7.0297    0.0000 C   0  0  0  0  0  0  0  0  0  0  0  0
   -0.0000   -5.5525    0.0000 C   0  0  0  0  0  0  0  0  0  0  0  0
  1  2  1  0
  2  3  1  0
  3  4  1  0
  4  5  1  0
  5  6  2  0
  6  7  1  0
  7  8  2  0
  8  9  1  0
  9 10  2  0
 10 11  1  0
 11 12  2  0
 12 13  1  0
 13 14  2  0
 14 15  1  0
 15 16  2  0
 16 17  1  0
 17 18  2  0
 18 19  1  0
 19 20  2  0
 20 21  1  0
 21 22  2  0
 22  2  1  0
 10  5  1  0
 16 11  1  0
 22 17  1  0
M  END
>  <Title>  (583) 
idAAUMgen14

$$$$

     RDKit          2D

 43 48  0  0  0  0  0  0  0  0999 V2000
   -3.7860   -5.5823    0.0000 C   0  0  0  0  0  0  0  0  0  0  0  0
   -2.4215   -4.9592    0.0000 C   0  0  0  0  0  0  0  0  0  0  0  0
   -1.4392   -6.0928    0.0000 C   0  0  0  0  0  0  0  0  0  0  0  0
   -0.0000   -6.5154    0.0000 C   0  0  0  0  0  0  0  0  0  0  0  0
    1.4392   -6.0928    0.0000 C   0  0  0  0  0  0  0  0  0  0  0  0
    2.4215   -4.9592    0.0000 C   0  0  0  0  0  0  0  0  0  0  0  0
    2.6350   -3.4744    0.0000 C   0  0  0  0  0  0  0  0  0  0  0  0
    2.0119   -2.1100    0.0000 C   0  0  0  0  0  0  0  0  0  0  0  0
    3.1455   -1.1277    0.0000 C   0  0  0  0  0  0  0  0  0  0  0  0
    2.8616    0.3452    0.0000 O   0  0  0  0  0  0  0  0  0  0  0  0
    4.5630   -1.6183    0.0000 N   0  0  0  0  0  0  0  0  0  0  0  0
    5.6966   -0.6360    0.0000 C   0  0  0  0  0  0  0  0  0  0  0  0
    5.5683    0.8585    0.0000 N   0  0  0  0  0  0  0  0  0  0  0  0
    6.9500    1.4424    0.0000 N   0  0  0  0  0  0  0  0  0  0  0  0
    7.9322    0.3088    0.0000 N   0  0  0  0  0  0  0  0  0  0  0  0
    7.1576   -0.9758    0.0000 N   0  0  0  0  0  0  0  0  0  0  0  0
    7.7416   -2.3574    0.0000 C   0  0  0  0  0  0  0  0  0  0  0  0
    9.2026   -2.6972    0.0000 C   0  0  0  0  0  0  0  0  0  0  0  0
    9.3309   -4.1917    0.0000 C   0  0  0  0  0  0  0  0  0  0  0  0
    7.9492   -4.7756    0.0000 C   0  0  0  0  0  0  0  0  0  0  0  0
    7.6095   -6.2366    0.0000 C   0  0  0  0  0  0  0  0  0  0  0  0
    8.7049   -7.2614    0.0000 O   0  0  0  0  0  0  0  0  0  0  0  0
    6.1744   -6.6729    0.0000 N   0  0  0  0  0  0  0  0  0  0  0  0
    5.8346   -8.1339    0.0000 C   0  0  0  0  0  0  0  0  0  0  0  0
    4.3995   -8.5702    0.0000 N   0  0  0  0  0  0  0  0  0  0  0  0
    4.0597  -10.0312    0.0000 N   0  0  0  0  0  0  0  0  0  0  0  0
    5.1551  -11.0560    0.0000 N   0  0  0  0  0  0  0  0  0  0  0  0
    6.5903  -10.6197    0.0000 N   0  0  0  0  0  0  0  0  0  0  0  0
    6.9300   -9.1587    0.0000 N   0  0  0  0  0  0  0  0  0  0  0  0
    6.9670   -3.6420    0.0000 C   0  0  0  0  0  0  0  0  0  0  0  0
    5.4725   -3.7703    0.0000 O   0  0  0  0  0  0  0  0  0  0  0  0
    0.7500   -1.2990    0.0000 C   0  0  0  0  0  0  0  0  0  0  0  0
    1.5000    0.0000    0.0000 C   0  0  0  0  0  0  0  0  0  0  0  0
    0.7500    1.2990    0.0000 C   0  0  0  0  0  0  0  0  0  0  0  0
   -0.7500    1.2990    0.0000 C   0  0  0  0  0  0  0  0  0  0  0  0
   -1.5000    0.0000    0.0000 C   0  0  0  0  0  0  0  0  0  0  0  0
   -0.7500   -1.2990    0.0000 C   0  0  0  0  0  0  0  0  0  0  0  0
   -2.0119   -2.1100    0.0000 C   0  0  0  0  0  0  0  0  0  0  0  0
   -2.8820   -0.8881    0.0000 C   0  0  0  0  0  0  0  0  0  0  0  0
   -4.3752   -1.0307    0.0000 C   0  0  0  0  0  0  0  0  0  0  0  0
   -4.9983   -2.3952    0.0000 C   0  0  0  0  0  0  0  0  0  0  0  0
   -4.1282   -3.6170    0.0000 C   0  0  0  0  0  0  0  0  0  0  0  0
   -2.6350   -3.4744    0.0000 C   0  0  0  0  0  0  0  0  0  0  0  0
  1  2  1  0
  2  3  1  0
  3  4  1  0
  4  5  1  0
  5  6  1  0
  6  7  1  0
  7  8  1  0
  8  9  1  0
  9 10  2  0
  9 11  1  0
 11 12  1  0
 12 13  2  0
 13 14  1  0
 14 15  2  0
 15 16  1  0
 16 17  1  0
 17 18  2  0
 18 19  1  0
 19 20  2  0
 20 21  1  0
 21 22  2  0
 21 23  1  0
 23 24  1  0
 24 25  2  0
 25 26  1  0
 26 27  2  0
 27 28  1  0
 28 29  2  0
 20 30  1  0
 30 31  2  0
  8 32  1  0
 32 33  2  0
 33 34  1  0
 34 35  2  0
 35 36  1  0
 36 37  2  0
 37 38  1  0
 38 39  2  0
 39 40  1  0
 40 41  2  0
 41 42  1  0
 42 43  2  0
 43  2  1  0
 16 12  1  0
 30 17  1  0
 37 32  1  0
 43 38  1  0
 29 24  1  0
M  END
>  <Title>  (584) 
idAAUNgen14

$$$$

     RDKit          2D

 37 41  0  0  0  0  0  0  0  0999 V2000
   -3.1965   -1.7857    0.0000 C   0  0  0  0  0  0  0  0  0  0  0  0
   -1.8107   -2.3597    0.0000 C   0  0  0  0  0  0  0  0  0  0  0  0
   -1.8107   -3.8597    0.0000 C   0  0  0  0  0  0  0  0  0  0  0  0
   -0.7500   -4.9204    0.0000 C   0  0  0  0  0  0  0  0  0  0  0  0
    0.7500   -4.9204    0.0000 C   0  0  0  0  0  0  0  0  0  0  0  0
    1.3240   -6.3062    0.0000 C   0  0  0  0  0  0  0  0  0  0  0  0
    2.8112   -6.5020    0.0000 O   0  0  0  0  0  0  0  0  0  0  0  0
    0.4109   -7.4962    0.0000 N   0  0  0  0  0  0  0  0  0  0  0  0
    0.9849   -8.8820    0.0000 C   0  0  0  0  0  0  0  0  0  0  0  0
    2.4435   -9.2322    0.0000 N   0  0  0  0  0  0  0  0  0  0  0  0
    2.5612  -10.7276    0.0000 N   0  0  0  0  0  0  0  0  0  0  0  0
    1.1753  -11.3016    0.0000 N   0  0  0  0  0  0  0  0  0  0  0  0
    0.2012  -10.1610    0.0000 N   0  0  0  0  0  0  0  0  0  0  0  0
   -1.2942  -10.2787    0.0000 N   0  0  0  0  0  0  0  0  0  0  0  0
   -2.0780  -11.5576    0.0000 C   0  0  0  0  0  0  0  0  0  0  0  0
   -3.5365  -11.2075    0.0000 C   0  0  0  0  0  0  0  0  0  0  0  0
   -3.6542   -9.7121    0.0000 N   0  0  0  0  0  0  0  0  0  0  0  0
   -4.9332   -8.9283    0.0000 C   0  0  0  0  0  0  0  0  0  0  0  0
   -6.2514   -9.6441    0.0000 O   0  0  0  0  0  0  0  0  0  0  0  0
   -4.8939   -7.4289    0.0000 N   0  0  0  0  0  0  0  0  0  0  0  0
   -6.1729   -6.6451    0.0000 C   0  0  0  0  0  0  0  0  0  0  0  0
   -6.1336   -5.1456    0.0000 N   0  0  0  0  0  0  0  0  0  0  0  0
   -7.4126   -4.3619    0.0000 N   0  0  0  0  0  0  0  0  0  0  0  0
   -8.7308   -5.0776    0.0000 N   0  0  0  0  0  0  0  0  0  0  0  0
   -8.7700   -6.5771    0.0000 N   0  0  0  0  0  0  0  0  0  0  0  0
   -7.4911   -7.3608    0.0000 N   0  0  0  0  0  0  0  0  0  0  0  0
   -2.2684   -9.1381    0.0000 C   0  0  0  0  0  0  0  0  0  0  0  0
   -1.9182   -7.6795    0.0000 O   0  0  0  0  0  0  0  0  0  0  0  0
    1.8107   -3.8597    0.0000 C   0  0  0  0  0  0  0  0  0  0  0  0
    3.1965   -4.4337    0.0000 O   0  0  0  0  0  0  0  0  0  0  0  0
    1.8107   -2.3597    0.0000 O   0  0  0  0  0  0  0  0  0  0  0  0
    0.7500   -1.2990    0.0000 C   0  0  0  0  0  0  0  0  0  0  0  0
    1.5000    0.0000    0.0000 C   0  0  0  0  0  0  0  0  0  0  0  0
    0.7500    1.2990    0.0000 C   0  0  0  0  0  0  0  0  0  0  0  0
   -0.7500    1.2990    0.0000 C   0  0  0  0  0  0  0  0  0  0  0  0
   -1.5000    0.0000    0.0000 C   0  0  0  0  0  0  0  0  0  0  0  0
   -0.7500   -1.2990    0.0000 C   0  0  0  0  0  0  0  0  0  0  0  0
  1  2  1  0
  2  3  1  0
  3  4  2  0
  4  5  1  0
  5  6  1  0
  6  7  2  0
  6  8  1  0
  8  9  1  0
  9 10  2  0
 10 11  1  0
 11 12  2  0
 12 13  1  0
 13 14  1  0
 14 15  1  0
 15 16  1  0
 16 17  1  0
 17 18  1  0
 18 19  2  0
 18 20  1  0
 20 21  1  0
 21 22  2  0
 22 23  1  0
 23 24  2  0
 24 25  1  0
 25 26  2  0
 17 27  1  0
 27 28  2  0
  5 29  1  0
 29 30  2  0
 29 31  1  0
 31 32  1  0
 32 33  2  0
 33 34  1  0
 34 35  2  0
 35 36  1  0
 36 37  2  0
 37  2  1  0
 13  9  1  0
 27 14  1  0
 37 32  1  0
 26 21  1  0
M  END
>  <Title>  (585) 
idAAUOgen14

$$$$

     RDKit          2D

  5  4  0  0  0  0  0  0  0  0999 V2000
   -1.2990    0.7500    0.0000 O   0  0  0  0  0  0  0  0  0  0  0  0
    0.0000    0.0000    0.0000 C   0  0  0  0  0  0  0  0  0  0  0  0
    1.2990    0.7500    0.0000 C   0  0  0  0  0  0  0  0  0  0  0  0
    2.5981   -0.0000    0.0000 O   0  0  0  0  0  0  0  0  0  0  0  0
    1.2990    2.2500    0.0000 F   0  0  0  0  0  0  0  0  0  0  0  0
  1  2  1  0
  2  3  1  0
  3  4  1  0
  3  5  1  0
M  END
>  <Title>  (586) 
idAAUPgen14

$$$$

     RDKit          2D

  9  8  0  0  0  0  0  0  0  0999 V2000
    0.0000    0.0000    0.0000 C   0  0  0  0  0  0  0  0  0  0  0  0
    1.2990    0.7500    0.0000 C   0  0  0  0  0  0  0  0  0  0  0  0
    2.5981   -0.0000    0.0000 C   0  0  0  0  0  0  0  0  0  0  0  0
    3.8971    0.7500    0.0000 C   0  0  0  0  0  0  0  0  0  0  0  0
    5.1962   -0.0000    0.0000 C   0  0  0  0  0  0  0  0  0  0  0  0
    3.8971    2.2500    0.0000 C   0  0  0  0  0  0  0  0  0  0  0  0
    5.1962    3.0000    0.0000 C   0  0  0  0  0  0  0  0  0  0  0  0
    5.1962    4.5000    0.0000 C   0  0  0  0  0  0  0  0  0  0  0  0
    6.4952    2.2500    0.0000 C   0  0  0  0  0  0  0  0  0  0  0  0
  1  2  1  0
  2  3  1  0
  3  4  1  0
  4  5  1  0
  4  6  1  0
  6  7  1  0
  7  8  1  0
  7  9  1  0
M  END
>  <Title>  (587) 
idAAUQgen14

$$$$

     RDKit          2D

  4  3  0  0  0  0  0  0  0  0999 V2000
    0.0000    0.0000    0.0000 C   0  0  0  0  0  0  0  0  0  0  0  0
    1.2990    0.7500    0.0000 C   0  0  0  0  0  0  0  0  0  0  0  0
    2.5981   -0.0000    0.0000 C   0  0  0  0  0  0  0  0  0  0  0  0
    3.8971    0.7500    0.0000 N   0  0  0  0  0  0  0  0  0  0  0  0
  1  2  1  0
  2  3  1  0
  3  4  2  0
M  END
>  <Title>  (588) 
idAAURgen14

$$$$

     RDKit          2D

  7  6  0  0  0  0  0  0  0  0999 V2000
    0.0000    0.0000    0.0000 C   0  0  0  0  0  0  0  0  0  0  0  0
    1.2990    0.7500    0.0000 C   0  0  0  0  0  0  0  0  0  0  0  0
    2.5981   -0.0000    0.0000 C   0  0  0  0  0  0  0  0  0  0  0  0
    3.8971    0.7500    0.0000 N   0  0  0  0  0  0  0  0  0  0  0  0
    5.1962   -0.0000    0.0000 C   0  0  0  0  0  0  0  0  0  0  0  0
    6.4952    0.7500    0.0000 C   0  0  0  0  0  0  0  0  0  0  0  0
    7.7942   -0.0000    0.0000 C   0  0  0  0  0  0  0  0  0  0  0  0
  1  2  1  0
  2  3  2  3
  3  4  1  0
  4  5  1  0
  5  6  2  3
  6  7  1  0
M  END
>  <Title>  (589) 
idAAUSgen14

$$$$

     RDKit          2D

 34 38  0  0  0  0  0  0  0  0999 V2000
   10.0051   -0.5013    0.0000 C   0  0  0  0  0  0  0  0  0  0  0  0
    8.5134   -0.6581    0.0000 C   0  0  0  0  0  0  0  0  0  0  0  0
    7.7634   -1.9571    0.0000 C   0  0  0  0  0  0  0  0  0  0  0  0
    6.2961   -1.6453    0.0000 C   0  0  0  0  0  0  0  0  0  0  0  0
    5.1814   -2.6490    0.0000 C   0  0  0  0  0  0  0  0  0  0  0  0
    5.4933   -4.1162    0.0000 C   0  0  0  0  0  0  0  0  0  0  0  0
    6.9199   -4.5797    0.0000 O   0  0  0  0  0  0  0  0  0  0  0  0
    4.3786   -5.1199    0.0000 N   0  0  0  0  0  0  0  0  0  0  0  0
    4.6904   -6.5871    0.0000 C   0  0  0  0  0  0  0  0  0  0  0  0
    6.0607   -7.1972    0.0000 N   0  0  0  0  0  0  0  0  0  0  0  0
    5.9040   -8.6890    0.0000 N   0  0  0  0  0  0  0  0  0  0  0  0
    4.4367   -9.0009    0.0000 N   0  0  0  0  0  0  0  0  0  0  0  0
    3.6867   -7.7018    0.0000 N   0  0  0  0  0  0  0  0  0  0  0  0
    2.1950   -7.5450    0.0000 N   0  0  0  0  0  0  0  0  0  0  0  0
    1.4450   -6.2460    0.0000 C   0  0  0  0  0  0  0  0  0  0  0  0
   -0.0223   -6.5579    0.0000 C   0  0  0  0  0  0  0  0  0  0  0  0
   -0.1791   -8.0497    0.0000 N   0  0  0  0  0  0  0  0  0  0  0  0
   -1.4781   -8.7997    0.0000 C   0  0  0  0  0  0  0  0  0  0  0  0
   -1.4781  -10.2997    0.0000 O   0  0  0  0  0  0  0  0  0  0  0  0
   -2.7771   -8.0497    0.0000 N   0  0  0  0  0  0  0  0  0  0  0  0
   -4.0762   -8.7997    0.0000 C   0  0  0  0  0  0  0  0  0  0  0  0
   -4.0762  -10.2997    0.0000 N   0  0  0  0  0  0  0  0  0  0  0  0
   -5.3752  -11.0497    0.0000 N   0  0  0  0  0  0  0  0  0  0  0  0
   -6.6743  -10.2997    0.0000 N   0  0  0  0  0  0  0  0  0  0  0  0
   -6.6743   -8.7997    0.0000 N   0  0  0  0  0  0  0  0  0  0  0  0
   -5.3752   -8.0497    0.0000 N   0  0  0  0  0  0  0  0  0  0  0  0
    1.1913   -8.6598    0.0000 C   0  0  0  0  0  0  0  0  0  0  0  0
    1.5031  -10.1270    0.0000 O   0  0  0  0  0  0  0  0  0  0  0  0
    6.1393   -0.1535    0.0000 C   0  0  0  0  0  0  0  0  0  0  0  0
    4.9258    0.7282    0.0000 C   0  0  0  0  0  0  0  0  0  0  0  0
    5.0826    2.2200    0.0000 C   0  0  0  0  0  0  0  0  0  0  0  0
    6.4529    2.8301    0.0000 C   0  0  0  0  0  0  0  0  0  0  0  0
    7.6664    1.9484    0.0000 C   0  0  0  0  0  0  0  0  0  0  0  0
    7.5097    0.4566    0.0000 C   0  0  0  0  0  0  0  0  0  0  0  0
  1  2  1  0
  2  3  2  0
  3  4  1  0
  4  5  1  0
  5  6  1  0
  6  7  2  0
  6  8  1  0
  8  9  1  0
  9 10  2  0
 10 11  1  0
 11 12  2  0
 12 13  1  0
 13 14  1  0
 14 15  1  0
 15 16  1  0
 16 17  1  0
 17 18  1  0
 18 19  2  0
 18 20  1  0
 20 21  1  0
 21 22  2  0
 22 23  1  0
 23 24  2  0
 24 25  1  0
 25 26  2  0
 17 27  1  0
 27 28  2  0
  4 29  1  0
 29 30  2  0
 30 31  1  0
 31 32  2  0
 32 33  1  0
 33 34  2  0
 34  2  1  0
 13  9  1  0
 27 14  1  0
 34 29  1  0
 26 21  1  0
M  END
>  <Title>  (590) 
idAAUTgen14

$$$$

     RDKit          2D

 12 13  0  0  0  0  0  0  0  0999 V2000
    4.6740   -4.8322    0.0000 C   0  0  0  0  0  0  0  0  0  0  0  0
    3.3037   -4.2221    0.0000 C   0  0  0  0  0  0  0  0  0  0  0  0
    2.9918   -2.7549    0.0000 C   0  0  0  0  0  0  0  0  0  0  0  0
    1.5000   -2.5981    0.0000 C   0  0  0  0  0  0  0  0  0  0  0  0
    0.7500   -1.2990    0.0000 N   0  0  0  0  0  0  0  0  0  0  0  0
    1.5000    0.0000    0.0000 C   0  0  0  0  0  0  0  0  0  0  0  0
    0.7500    1.2990    0.0000 C   0  0  0  0  0  0  0  0  0  0  0  0
   -0.7500    1.2990    0.0000 N   0  0  0  0  0  0  0  0  0  0  0  0
   -1.5000    0.0000    0.0000 N   0  0  0  0  0  0  0  0  0  0  0  0
   -0.7500   -1.2990    0.0000 N   0  0  0  0  0  0  0  0  0  0  0  0
    0.8899   -3.9684    0.0000 C   0  0  0  0  0  0  0  0  0  0  0  0
    2.0046   -4.9721    0.0000 C   0  0  0  0  0  0  0  0  0  0  0  0
  1  2  1  0
  2  3  2  0
  3  4  1  0
  4  5  1  0
  5  6  1  0
  6  7  1  0
  7  8  2  0
  8  9  1  0
  9 10  2  0
  4 11  1  0
 11 12  2  0
 12  2  1  0
 10  5  1  0
M  END
>  <Title>  (591) 
idAAUUgen14

$$$$

     RDKit          2D

 36 40  0  0  0  0  0  0  0  0999 V2000
   -3.1476   -2.1380    0.0000 C   0  0  0  0  0  0  0  0  0  0  0  0
   -1.6852   -2.4718    0.0000 C   0  0  0  0  0  0  0  0  0  0  0  0
   -1.3515   -3.9342    0.0000 C   0  0  0  0  0  0  0  0  0  0  0  0
   -0.0000   -4.5850    0.0000 C   0  0  0  0  0  0  0  0  0  0  0  0
    1.3515   -3.9342    0.0000 C   0  0  0  0  0  0  0  0  0  0  0  0
    1.6852   -2.4718    0.0000 N   0  0  0  0  0  0  0  0  0  0  0  0
    3.1476   -2.1380    0.0000 C   0  0  0  0  0  0  0  0  0  0  0  0
    3.5898   -0.7046    0.0000 O   0  0  0  0  0  0  0  0  0  0  0  0
    4.1679   -3.2376    0.0000 N   0  0  0  0  0  0  0  0  0  0  0  0
    5.6303   -2.9038    0.0000 C   0  0  0  0  0  0  0  0  0  0  0  0
    6.2198   -1.5245    0.0000 N   0  0  0  0  0  0  0  0  0  0  0  0
    7.7138   -1.6590    0.0000 N   0  0  0  0  0  0  0  0  0  0  0  0
    8.0476   -3.1214    0.0000 N   0  0  0  0  0  0  0  0  0  0  0  0
    6.7599   -3.8907    0.0000 N   0  0  0  0  0  0  0  0  0  0  0  0
    6.6254   -5.3847    0.0000 C   0  0  0  0  0  0  0  0  0  0  0  0
    7.7550   -6.3716    0.0000 C   0  0  0  0  0  0  0  0  0  0  0  0
    7.1655   -7.7509    0.0000 C   0  0  0  0  0  0  0  0  0  0  0  0
    5.6715   -7.6164    0.0000 C   0  0  0  0  0  0  0  0  0  0  0  0
    4.6846   -8.7460    0.0000 O   0  0  0  0  0  0  0  0  0  0  0  0
    3.2129   -8.4561    0.0000 C   0  0  0  0  0  0  0  0  0  0  0  0
    2.7281   -7.0366    0.0000 O   0  0  0  0  0  0  0  0  0  0  0  0
    2.2260   -9.5857    0.0000 N   0  0  0  0  0  0  0  0  0  0  0  0
    0.7543   -9.2959    0.0000 C   0  0  0  0  0  0  0  0  0  0  0  0
    0.2695   -7.8764    0.0000 N   0  0  0  0  0  0  0  0  0  0  0  0
   -1.2023   -7.5865    0.0000 N   0  0  0  0  0  0  0  0  0  0  0  0
   -2.1892   -8.7161    0.0000 N   0  0  0  0  0  0  0  0  0  0  0  0
   -1.7044  -10.1356    0.0000 N   0  0  0  0  0  0  0  0  0  0  0  0
   -0.2326  -10.4255    0.0000 N   0  0  0  0  0  0  0  0  0  0  0  0
    5.3378   -6.1540    0.0000 C   0  0  0  0  0  0  0  0  0  0  0  0
    3.9585   -5.5645    0.0000 O   0  0  0  0  0  0  0  0  0  0  0  0
    0.7500   -1.2990    0.0000 C   0  0  0  0  0  0  0  0  0  0  0  0
    1.5000    0.0000    0.0000 C   0  0  0  0  0  0  0  0  0  0  0  0
    0.7500    1.2990    0.0000 C   0  0  0  0  0  0  0  0  0  0  0  0
   -0.7500    1.2990    0.0000 C   0  0  0  0  0  0  0  0  0  0  0  0
   -1.5000    0.0000    0.0000 C   0  0  0  0  0  0  0  0  0  0  0  0
   -0.7500   -1.2990    0.0000 C   0  0  0  0  0  0  0  0  0  0  0  0
  1  2  1  0
  2  3  1  0
  3  4  1  0
  4  5  1  0
  5  6  1  0
  6  7  1  0
  7  8  2  0
  7  9  1  0
  9 10  1  0
 10 11  2  0
 11 12  1  0
 12 13  2  0
 13 14  1  0
 14 15  1  0
 15 16  2  0
 16 17  1  0
 17 18  2  0
 18 19  1  0
 19 20  1  0
 20 21  2  0
 20 22  1  0
 22 23  1  0
 23 24  2  0
 24 25  1  0
 25 26  2  0
 26 27  1  0
 27 28  2  0
 18 29  1  0
 29 30  2  0
  6 31  1  0
 31 32  2  0
 32 33  1  0
 33 34  2  0
 34 35  1  0
 35 36  2  0
 36  2  1  0
 14 10  1  0
 29 15  1  0
 36 31  1  0
 28 23  1  0
M  END
>  <Title>  (592) 
idAAUVgen14

$$$$

     RDKit          2D

 35 39  0  0  0  0  0  0  0  0999 V2000
   -3.1476   -2.1380    0.0000 C   0  0  0  0  0  0  0  0  0  0  0  0
   -1.6852   -2.4718    0.0000 C   0  0  0  0  0  0  0  0  0  0  0  0
   -1.3515   -3.9342    0.0000 C   0  0  0  0  0  0  0  0  0  0  0  0
   -0.0000   -4.5850    0.0000 C   0  0  0  0  0  0  0  0  0  0  0  0
    1.3515   -3.9342    0.0000 C   0  0  0  0  0  0  0  0  0  0  0  0
    1.6852   -2.4718    0.0000 C   0  0  0  0  0  0  0  0  0  0  0  0
    3.1476   -2.1380    0.0000 C   0  0  0  0  0  0  0  0  0  0  0  0
    3.5898   -0.7046    0.0000 O   0  0  0  0  0  0  0  0  0  0  0  0
    4.1679   -3.2376    0.0000 N   0  0  0  0  0  0  0  0  0  0  0  0
    5.6303   -2.9038    0.0000 C   0  0  0  0  0  0  0  0  0  0  0  0
    6.2198   -1.5245    0.0000 N   0  0  0  0  0  0  0  0  0  0  0  0
    7.7138   -1.6590    0.0000 N   0  0  0  0  0  0  0  0  0  0  0  0
    8.0476   -3.1214    0.0000 N   0  0  0  0  0  0  0  0  0  0  0  0
    6.7599   -3.8907    0.0000 N   0  0  0  0  0  0  0  0  0  0  0  0
    6.6254   -5.3847    0.0000 C   0  0  0  0  0  0  0  0  0  0  0  0
    7.7550   -6.3716    0.0000 C   0  0  0  0  0  0  0  0  0  0  0  0
    7.1655   -7.7509    0.0000 C   0  0  0  0  0  0  0  0  0  0  0  0
    5.6715   -7.6164    0.0000 C   0  0  0  0  0  0  0  0  0  0  0  0
    4.6846   -8.7460    0.0000 C   0  0  0  0  0  0  0  0  0  0  0  0
    5.1694  -10.1655    0.0000 O   0  0  0  0  0  0  0  0  0  0  0  0
    3.2129   -8.4561    0.0000 N   0  0  0  0  0  0  0  0  0  0  0  0
    2.2260   -9.5857    0.0000 C   0  0  0  0  0  0  0  0  0  0  0  0
    0.7543   -9.2959    0.0000 N   0  0  0  0  0  0  0  0  0  0  0  0
   -0.2326  -10.4255    0.0000 N   0  0  0  0  0  0  0  0  0  0  0  0
    0.2522  -11.8450    0.0000 N   0  0  0  0  0  0  0  0  0  0  0  0
    1.7239  -12.1348    0.0000 N   0  0  0  0  0  0  0  0  0  0  0  0
    2.7108  -11.0052    0.0000 N   0  0  0  0  0  0  0  0  0  0  0  0
    5.3378   -6.1540    0.0000 C   0  0  0  0  0  0  0  0  0  0  0  0
    3.9585   -5.5645    0.0000 O   0  0  0  0  0  0  0  0  0  0  0  0
    0.7500   -1.2990    0.0000 C   0  0  0  0  0  0  0  0  0  0  0  0
    1.5000    0.0000    0.0000 C   0  0  0  0  0  0  0  0  0  0  0  0
    0.7500    1.2990    0.0000 C   0  0  0  0  0  0  0  0  0  0  0  0
   -0.7500    1.2990    0.0000 C   0  0  0  0  0  0  0  0  0  0  0  0
   -1.5000    0.0000    0.0000 C   0  0  0  0  0  0  0  0  0  0  0  0
   -0.7500   -1.2990    0.0000 C   0  0  0  0  0  0  0  0  0  0  0  0
  1  2  1  0
  2  3  1  0
  3  4  2  0
  4  5  1  0
  5  6  2  0
  6  7  1  0
  7  8  2  0
  7  9  1  0
  9 10  1  0
 10 11  2  0
 11 12  1  0
 12 13  2  0
 13 14  1  0
 14 15  1  0
 15 16  2  0
 16 17  1  0
 17 18  2  0
 18 19  1  0
 19 20  2  0
 19 21  1  0
 21 22  1  0
 22 23  2  0
 23 24  1  0
 24 25  2  0
 25 26  1  0
 26 27  2  0
 18 28  1  0
 28 29  2  0
  6 30  1  0
 30 31  2  0
 31 32  1  0
 32 33  2  0
 33 34  1  0
 34 35  2  0
 35  2  1  0
 14 10  1  0
 28 15  1  0
 35 30  1  0
 27 22  1  0
M  END
>  <Title>  (593) 
idAAUWgen14

$$$$

     RDKit          2D

  7  7  0  0  0  0  0  0  0  0999 V2000
    3.0000    0.0000    0.0000 C   0  0  0  0  0  0  0  0  0  0  0  0
    1.5000    0.0000    0.0000 C   0  0  0  0  0  0  0  0  0  0  0  0
    0.7500   -1.2990    0.0000 C   0  0  0  0  0  0  0  0  0  0  0  0
   -0.7500   -1.2990    0.0000 C   0  0  0  0  0  0  0  0  0  0  0  0
   -1.5000    0.0000    0.0000 C   0  0  0  0  0  0  0  0  0  0  0  0
   -0.7500    1.2990    0.0000 C   0  0  0  0  0  0  0  0  0  0  0  0
    0.7500    1.2990    0.0000 N   0  0  0  0  0  0  0  0  0  0  0  0
  1  2  1  0
  2  3  2  0
  3  4  1  0
  4  5  1  0
  5  6  1  0
  6  7  1  0
  7  2  1  0
M  END
>  <Title>  (594) 
idAAUXgen14

$$$$

     RDKit          2D

 35 39  0  0  0  0  0  0  0  0999 V2000
   -3.1965   -1.7857    0.0000 C   0  0  0  0  0  0  0  0  0  0  0  0
   -1.8107   -2.3597    0.0000 C   0  0  0  0  0  0  0  0  0  0  0  0
   -1.8107   -3.8597    0.0000 C   0  0  0  0  0  0  0  0  0  0  0  0
   -0.7500   -4.9204    0.0000 C   0  0  0  0  0  0  0  0  0  0  0  0
    0.7500   -4.9204    0.0000 C   0  0  0  0  0  0  0  0  0  0  0  0
    1.8107   -3.8597    0.0000 C   0  0  0  0  0  0  0  0  0  0  0  0
    1.8107   -2.3597    0.0000 C   0  0  0  0  0  0  0  0  0  0  0  0
    3.1965   -1.7857    0.0000 C   0  0  0  0  0  0  0  0  0  0  0  0
    3.3923   -0.2985    0.0000 O   0  0  0  0  0  0  0  0  0  0  0  0
    4.3865   -2.6988    0.0000 N   0  0  0  0  0  0  0  0  0  0  0  0
    5.7723   -2.1248    0.0000 C   0  0  0  0  0  0  0  0  0  0  0  0
    6.1225   -0.6662    0.0000 N   0  0  0  0  0  0  0  0  0  0  0  0
    7.6179   -0.5485    0.0000 N   0  0  0  0  0  0  0  0  0  0  0  0
    8.1919   -1.9344    0.0000 N   0  0  0  0  0  0  0  0  0  0  0  0
    7.0513   -2.9085    0.0000 N   0  0  0  0  0  0  0  0  0  0  0  0
    7.1690   -4.4039    0.0000 N   0  0  0  0  0  0  0  0  0  0  0  0
    6.1948   -5.5445    0.0000 C   0  0  0  0  0  0  0  0  0  0  0  0
    7.3354   -6.5187    0.0000 C   0  0  0  0  0  0  0  0  0  0  0  0
    7.4531   -8.0141    0.0000 C   0  0  0  0  0  0  0  0  0  0  0  0
    8.8070   -8.6598    0.0000 O   0  0  0  0  0  0  0  0  0  0  0  0
    6.2169   -8.8637    0.0000 N   0  0  0  0  0  0  0  0  0  0  0  0
    6.3346  -10.3591    0.0000 C   0  0  0  0  0  0  0  0  0  0  0  0
    5.0984  -11.2087    0.0000 N   0  0  0  0  0  0  0  0  0  0  0  0
    5.2161  -12.7040    0.0000 N   0  0  0  0  0  0  0  0  0  0  0  0
    6.5700  -13.3498    0.0000 N   0  0  0  0  0  0  0  0  0  0  0  0
    7.8062  -12.5002    0.0000 N   0  0  0  0  0  0  0  0  0  0  0  0
    7.6885  -11.0048    0.0000 N   0  0  0  0  0  0  0  0  0  0  0  0
    8.3096   -5.3781    0.0000 C   0  0  0  0  0  0  0  0  0  0  0  0
    9.8050   -5.2604    0.0000 O   0  0  0  0  0  0  0  0  0  0  0  0
    0.7500   -1.2990    0.0000 C   0  0  0  0  0  0  0  0  0  0  0  0
    1.5000    0.0000    0.0000 C   0  0  0  0  0  0  0  0  0  0  0  0
    0.7500    1.2990    0.0000 C   0  0  0  0  0  0  0  0  0  0  0  0
   -0.7500    1.2990    0.0000 C   0  0  0  0  0  0  0  0  0  0  0  0
   -1.5000    0.0000    0.0000 C   0  0  0  0  0  0  0  0  0  0  0  0
   -0.7500   -1.2990    0.0000 C   0  0  0  0  0  0  0  0  0  0  0  0
  1  2  1  0
  2  3  2  0
  3  4  1  0
  4  5  1  0
  5  6  1  0
  6  7  1  0
  7  8  1  0
  8  9  2  0
  8 10  1  0
 10 11  1  0
 11 12  2  0
 12 13  1  0
 13 14  2  0
 14 15  1  0
 15 16  1  0
 16 17  1  0
 17 18  2  0
 18 19  1  0
 19 20  2  0
 19 21  1  0
 21 22  1  0
 22 23  2  0
 23 24  1  0
 24 25  2  0
 25 26  1  0
 26 27  2  0
 18 28  1  0
 28 29  2  0
  7 30  1  0
 30 31  2  0
 31 32  1  0
 32 33  2  0
 33 34  1  0
 34 35  2  0
 35  2  1  0
 15 11  1  0
 28 16  1  0
 35 30  1  0
 27 22  1  0
M  END
>  <Title>  (595) 
idAAUYgen14

$$$$

     RDKit          2D

 10 10  0  0  0  0  0  0  0  0999 V2000
    5.2500   -1.2990    0.0000 C   0  0  0  0  0  0  0  0  0  0  0  0
    3.7500   -1.2990    0.0000 C   0  0  0  0  0  0  0  0  0  0  0  0
    3.0000   -2.5981    0.0000 O   0  0  0  0  0  0  0  0  0  0  0  0
    3.0000    0.0000    0.0000 N   0  0  0  0  0  0  0  0  0  0  0  0
    1.5000    0.0000    0.0000 C   0  0  0  0  0  0  0  0  0  0  0  0
    0.7500   -1.2990    0.0000 C   0  0  0  0  0  0  0  0  0  0  0  0
   -0.7500   -1.2990    0.0000 S   0  0  0  0  0  0  0  0  0  0  0  0
   -1.5000    0.0000    0.0000 C   0  0  0  0  0  0  0  0  0  0  0  0
   -0.7500    1.2990    0.0000 C   0  0  0  0  0  0  0  0  0  0  0  0
    0.7500    1.2990    0.0000 C   0  0  0  0  0  0  0  0  0  0  0  0
  1  2  1  0
  2  3  2  0
  2  4  1  0
  4  5  1  0
  5  6  2  0
  6  7  1  0
  7  8  1  0
  8  9  1  0
  9 10  2  0
 10  5  1  0
M  END
>  <Title>  (596) 
idAAUZgen14

$$$$

     RDKit          2D

 11 10  0  0  0  0  0  0  0  0999 V2000
    0.0000    0.0000    0.0000 C   0  0  0  0  0  0  0  0  0  0  0  0
    1.2990    0.7500    0.0000 C   0  0  0  0  0  0  0  0  0  0  0  0
    2.5981   -0.0000    0.0000 C   0  0  0  0  0  0  0  0  0  0  0  0
    3.8971    0.7500    0.0000 C   0  0  0  0  0  0  0  0  0  0  0  0
    3.8971    2.2500    0.0000 O   0  0  0  0  0  0  0  0  0  0  0  0
    5.1962   -0.0000    0.0000 N   0  0  0  0  0  0  0  0  0  0  0  0
    6.4952    0.7500    0.0000 C   0  0  0  0  0  0  0  0  0  0  0  0
    7.7942   -0.0000    0.0000 C   0  0  0  0  0  0  0  0  0  0  0  0
    6.4952    2.2500    0.0000 C   0  0  0  0  0  0  0  0  0  0  0  0
    7.7942    3.0000    0.0000 C   0  0  0  0  0  0  0  0  0  0  0  0
    9.0933    3.7500    0.0000 N   0  0  0  0  0  0  0  0  0  0  0  0
  1  2  1  0
  2  3  1  0
  3  4  1  0
  4  5  2  0
  4  6  1  0
  6  7  1  0
  7  8  1  0
  7  9  1  0
  9 10  1  0
 10 11  3  0
M  END
>  <Title>  (597) 
idAAVAgen14

$$$$

     RDKit          2D

  8  7  0  0  0  0  0  0  0  0999 V2000
    0.0000    0.0000    0.0000 C   0  0  0  0  0  0  0  0  0  0  0  0
    1.2990    0.7500    0.0000 C   0  0  0  0  0  0  0  0  0  0  0  0
    2.5981   -0.0000    0.0000 C   0  0  0  0  0  0  0  0  0  0  0  0
    3.8971    0.7500    0.0000 C   0  0  0  0  0  0  0  0  0  0  0  0
    5.1962   -0.0000    0.0000 C   0  0  0  0  0  0  0  0  0  0  0  0
    6.4952    0.7500    0.0000 C   0  0  0  0  0  0  0  0  0  0  0  0
    7.7942   -0.0000    0.0000 C   0  0  0  0  0  0  0  0  0  0  0  0
    9.0933   -0.7500    0.0000 N   0  0  0  0  0  0  0  0  0  0  0  0
  1  2  1  0
  2  3  1  0
  3  4  2  3
  4  5  1  0
  5  6  1  0
  6  7  1  0
  7  8  3  0
M  END
>  <Title>  (598) 
idAAVBgen14

$$$$

     RDKit          2D

 36 40  0  0  0  0  0  0  0  0999 V2000
   -3.1965   -1.7857    0.0000 C   0  0  0  0  0  0  0  0  0  0  0  0
   -1.8107   -2.3597    0.0000 C   0  0  0  0  0  0  0  0  0  0  0  0
   -1.8107   -3.8597    0.0000 C   0  0  0  0  0  0  0  0  0  0  0  0
   -0.7500   -4.9204    0.0000 C   0  0  0  0  0  0  0  0  0  0  0  0
    0.7500   -4.9204    0.0000 C   0  0  0  0  0  0  0  0  0  0  0  0
    1.8107   -3.8597    0.0000 C   0  0  0  0  0  0  0  0  0  0  0  0
    1.8107   -2.3597    0.0000 C   0  0  0  0  0  0  0  0  0  0  0  0
    3.1965   -1.7857    0.0000 C   0  0  0  0  0  0  0  0  0  0  0  0
    3.3923   -0.2985    0.0000 O   0  0  0  0  0  0  0  0  0  0  0  0
    4.3865   -2.6988    0.0000 N   0  0  0  0  0  0  0  0  0  0  0  0
    5.7723   -2.1248    0.0000 C   0  0  0  0  0  0  0  0  0  0  0  0
    6.1225   -0.6662    0.0000 N   0  0  0  0  0  0  0  0  0  0  0  0
    7.6179   -0.5485    0.0000 N   0  0  0  0  0  0  0  0  0  0  0  0
    8.1919   -1.9344    0.0000 N   0  0  0  0  0  0  0  0  0  0  0  0
    7.0513   -2.9085    0.0000 N   0  0  0  0  0  0  0  0  0  0  0  0
    7.1690   -4.4039    0.0000 N   0  0  0  0  0  0  0  0  0  0  0  0
    8.4479   -5.1877    0.0000 C   0  0  0  0  0  0  0  0  0  0  0  0
    8.0978   -6.6462    0.0000 C   0  0  0  0  0  0  0  0  0  0  0  0
    6.6024   -6.7639    0.0000 N   0  0  0  0  0  0  0  0  0  0  0  0
    5.8186   -8.0429    0.0000 C   0  0  0  0  0  0  0  0  0  0  0  0
    6.5344   -9.3611    0.0000 O   0  0  0  0  0  0  0  0  0  0  0  0
    4.3192   -8.0036    0.0000 N   0  0  0  0  0  0  0  0  0  0  0  0
    3.5354   -9.2826    0.0000 C   0  0  0  0  0  0  0  0  0  0  0  0
    2.0359   -9.2433    0.0000 N   0  0  0  0  0  0  0  0  0  0  0  0
    1.2522  -10.5223    0.0000 N   0  0  0  0  0  0  0  0  0  0  0  0
    1.9679  -11.8405    0.0000 N   0  0  0  0  0  0  0  0  0  0  0  0
    3.4674  -11.8797    0.0000 N   0  0  0  0  0  0  0  0  0  0  0  0
    4.2512  -10.6008    0.0000 N   0  0  0  0  0  0  0  0  0  0  0  0
    6.0284   -5.3781    0.0000 C   0  0  0  0  0  0  0  0  0  0  0  0
    4.5698   -5.0279    0.0000 O   0  0  0  0  0  0  0  0  0  0  0  0
    0.7500   -1.2990    0.0000 C   0  0  0  0  0  0  0  0  0  0  0  0
    1.5000    0.0000    0.0000 C   0  0  0  0  0  0  0  0  0  0  0  0
    0.7500    1.2990    0.0000 C   0  0  0  0  0  0  0  0  0  0  0  0
   -0.7500    1.2990    0.0000 C   0  0  0  0  0  0  0  0  0  0  0  0
   -1.5000    0.0000    0.0000 C   0  0  0  0  0  0  0  0  0  0  0  0
   -0.7500   -1.2990    0.0000 C   0  0  0  0  0  0  0  0  0  0  0  0
  1  2  1  0
  2  3  1  0
  3  4  1  0
  4  5  1  0
  5  6  2  0
  6  7  1  0
  7  8  1  0
  8  9  2  0
  8 10  1  0
 10 11  1  0
 11 12  2  0
 12 13  1  0
 13 14  2  0
 14 15  1  0
 15 16  1  0
 16 17  1  0
 17 18  1  0
 18 19  1  0
 19 20  1  0
 20 21  2  0
 20 22  1  0
 22 23  1  0
 23 24  2  0
 24 25  1  0
 25 26  2  0
 26 27  1  0
 27 28  2  0
 19 29  1  0
 29 30  2  0
  7 31  1  0
 31 32  2  0
 32 33  1  0
 33 34  2  0
 34 35  1  0
 35 36  2  0
 36  2  1  0
 15 11  1  0
 29 16  1  0
 36 31  1  0
 28 23  1  0
M  END
>  <Title>  (599) 
idAAVCgen14

$$$$

     RDKit          2D

 10  9  0  0  0  0  0  0  0  0999 V2000
    0.0000    0.0000    0.0000 C   0  0  0  0  0  0  0  0  0  0  0  0
    1.2990    0.7500    0.0000 C   0  0  0  0  0  0  0  0  0  0  0  0
    2.5981   -0.0000    0.0000 C   0  0  0  0  0  0  0  0  0  0  0  0
    3.8971    0.7500    0.0000 C   0  0  0  0  0  0  0  0  0  0  0  0
    5.1962   -0.0000    0.0000 C   0  0  0  0  0  0  0  0  0  0  0  0
    3.8971    2.2500    0.0000 N   0  0  0  0  0  0  0  0  0  0  0  0
    5.1962    3.0000    0.0000 C   0  0  0  0  0  0  0  0  0  0  0  0
    5.9462    1.7010    0.0000 C   0  0  0  0  0  0  0  0  0  0  0  0
    4.4462    4.2990    0.0000 C   0  0  0  0  0  0  0  0  0  0  0  0
    6.4952    3.7500    0.0000 O   0  0  0  0  0  0  0  0  0  0  0  0
  1  2  1  0
  2  3  1  0
  3  4  1  0
  4  5  1  0
  4  6  1  0
  6  7  1  0
  7  8  1  0
  7  9  1  0
  7 10  1  0
M  END
>  <Title>  (600) 
idAAVDgen14

$$$$

     RDKit          2D

 10 10  0  0  0  0  0  0  0  0999 V2000
    3.5260   -3.8971    0.0000 C   0  0  0  0  0  0  0  0  0  0  0  0
    2.7760   -2.5981    0.0000 C   0  0  0  0  0  0  0  0  0  0  0  0
    3.5260   -1.2990    0.0000 C   0  0  0  0  0  0  0  0  0  0  0  0
    5.0260   -1.2990    0.0000 C   0  0  0  0  0  0  0  0  0  0  0  0
    2.7760    0.0000    0.0000 C   0  0  0  0  0  0  0  0  0  0  0  0
    1.2760    0.0000    0.0000 C   0  0  0  0  0  0  0  0  0  0  0  0
    0.3943    1.2135    0.0000 C   0  0  0  0  0  0  0  0  0  0  0  0
   -1.0323    0.7500    0.0000 C   0  0  0  0  0  0  0  0  0  0  0  0
   -1.0323   -0.7500    0.0000 C   0  0  0  0  0  0  0  0  0  0  0  0
    0.3943   -1.2135    0.0000 N   0  0  0  0  0  0  0  0  0  0  0  0
  1  2  1  0
  2  3  1  0
  3  4  1  0
  3  5  1  0
  5  6  1  0
  6  7  2  0
  7  8  1  0
  8  9  1  0
  9 10  2  0
 10  6  1  0
M  END
>  <Title>  (601) 
idAAVEgen14

$$$$

     RDKit          2D

 17 17  0  0  0  0  0  0  0  0999 V2000
   12.7500   -6.4952    0.0000 C   0  0  0  0  0  0  0  0  0  0  0  0
   12.0000   -5.1962    0.0000 C   0  0  0  0  0  0  0  0  0  0  0  0
   10.5000   -5.1962    0.0000 C   0  0  0  0  0  0  0  0  0  0  0  0
    9.7500   -3.8971    0.0000 C   0  0  0  0  0  0  0  0  0  0  0  0
    8.2500   -3.8971    0.0000 C   0  0  0  0  0  0  0  0  0  0  0  0
    7.5000   -5.1962    0.0000 O   0  0  0  0  0  0  0  0  0  0  0  0
    7.5000   -2.5981    0.0000 N   0  0  0  0  0  0  0  0  0  0  0  0
    6.0000   -2.5981    0.0000 C   0  0  0  0  0  0  0  0  0  0  0  0
    5.2500   -1.2990    0.0000 C   0  0  0  0  0  0  0  0  0  0  0  0
    3.7500   -1.2990    0.0000 N   0  0  0  0  0  0  0  0  0  0  0  0
    3.0000    0.0000    0.0000 C   0  0  0  0  0  0  0  0  0  0  0  0
    1.5000    0.0000    0.0000 C   0  0  0  0  0  0  0  0  0  0  0  0
    0.7500   -1.2990    0.0000 C   0  0  0  0  0  0  0  0  0  0  0  0
   -0.7500   -1.2990    0.0000 C   0  0  0  0  0  0  0  0  0  0  0  0
   -1.5000    0.0000    0.0000 C   0  0  0  0  0  0  0  0  0  0  0  0
   -0.7500    1.2990    0.0000 C   0  0  0  0  0  0  0  0  0  0  0  0
    0.7500    1.2990    0.0000 C   0  0  0  0  0  0  0  0  0  0  0  0
  1  2  2  0
  2  3  1  0
  3  4  1  0
  4  5  1  0
  5  6  2  0
  5  7  1  0
  7  8  1  0
  8  9  2  3
  9 10  1  0
 10 11  1  0
 11 12  1  0
 12 13  2  0
 13 14  1  0
 14 15  1  0
 15 16  1  0
 16 17  2  0
 17 12  1  0
M  END
>  <Title>  (602) 
idAAVFgen14

$$$$

     RDKit          2D

 36 40  0  0  0  0  0  0  0  0999 V2000
   -4.5000   -5.1962    0.0000 C   0  0  0  0  0  0  0  0  0  0  0  0
   -3.7500   -3.8971    0.0000 C   0  0  0  0  0  0  0  0  0  0  0  0
   -3.0000   -2.5981    0.0000 C   0  0  0  0  0  0  0  0  0  0  0  0
   -1.5000   -2.5981    0.0000 C   0  0  0  0  0  0  0  0  0  0  0  0
   -0.7500   -3.8971    0.0000 C   0  0  0  0  0  0  0  0  0  0  0  0
    0.7500   -3.8971    0.0000 S   0  0  0  0  0  4  0  0  0  0  0  0
    1.5000   -2.5981    0.0000 C   0  0  0  0  0  0  0  0  0  0  0  0
    3.0000   -2.5981    0.0000 C   0  0  0  0  0  0  0  0  0  0  0  0
    3.7500   -1.2990    0.0000 O   0  0  0  0  0  0  0  0  0  0  0  0
    3.7500   -3.8971    0.0000 N   0  0  0  0  0  0  0  0  0  0  0  0
    5.2500   -3.8971    0.0000 C   0  0  0  0  0  0  0  0  0  0  0  0
    6.1317   -2.6836    0.0000 N   0  0  0  0  0  0  0  0  0  0  0  0
    7.5583   -3.1471    0.0000 N   0  0  0  0  0  0  0  0  0  0  0  0
    7.5583   -4.6471    0.0000 N   0  0  0  0  0  0  0  0  0  0  0  0
    6.1317   -5.1106    0.0000 N   0  0  0  0  0  0  0  0  0  0  0  0
    5.6682   -6.5372    0.0000 C   0  0  0  0  0  0  0  0  0  0  0  0
    6.5498   -7.7508    0.0000 C   0  0  0  0  0  0  0  0  0  0  0  0
    5.6682   -8.9643    0.0000 C   0  0  0  0  0  0  0  0  0  0  0  0
    4.2416   -8.5008    0.0000 C   0  0  0  0  0  0  0  0  0  0  0  0
    3.0280   -9.3824    0.0000 C   0  0  0  0  0  0  0  0  0  0  0  0
    3.1848  -10.8742    0.0000 O   0  0  0  0  0  0  0  0  0  0  0  0
    1.6577   -8.7723    0.0000 N   0  0  0  0  0  0  0  0  0  0  0  0
    0.4442   -9.6540    0.0000 C   0  0  0  0  0  0  0  0  0  0  0  0
   -0.9261   -9.0439    0.0000 N   0  0  0  0  0  0  0  0  0  0  0  0
   -2.1396   -9.9256    0.0000 N   0  0  0  0  0  0  0  0  0  0  0  0
   -1.9829  -11.4174    0.0000 N   0  0  0  0  0  0  0  0  0  0  0  0
   -0.6125  -12.0275    0.0000 N   0  0  0  0  0  0  0  0  0  0  0  0
    0.6010  -11.1458    0.0000 N   0  0  0  0  0  0  0  0  0  0  0  0
    4.2416   -7.0008    0.0000 C   0  0  0  0  0  0  0  0  0  0  0  0
    3.0280   -6.1191    0.0000 O   0  0  0  0  0  0  0  0  0  0  0  0
    0.7500   -1.2990    0.0000 C   0  0  0  0  0  0  0  0  0  0  0  0
    1.5000    0.0000    0.0000 C   0  0  0  0  0  0  0  0  0  0  0  0
    0.7500    1.2990    0.0000 C   0  0  0  0  0  0  0  0  0  0  0  0
   -0.7500    1.2990    0.0000 C   0  0  0  0  0  0  0  0  0  0  0  0
   -1.5000    0.0000    0.0000 C   0  0  0  0  0  0  0  0  0  0  0  0
   -0.7500   -1.2990    0.0000 C   0  0  0  0  0  0  0  0  0  0  0  0
  1  2  3  0
  2  3  1  0
  3  4  1  0
  4  5  2  0
  5  6  1  0
  6  7  2  0
  7  8  1  0
  8  9  2  0
  8 10  1  0
 10 11  1  0
 11 12  2  0
 12 13  1  0
 13 14  2  0
 14 15  1  0
 15 16  1  0
 16 17  2  0
 17 18  1  0
 18 19  2  0
 19 20  1  0
 20 21  2  0
 20 22  1  0
 22 23  1  0
 23 24  2  0
 24 25  1  0
 25 26  2  0
 26 27  1  0
 27 28  2  0
 19 29  1  0
 29 30  2  0
  7 31  1  0
 31 32  2  0
 32 33  1  0
 33 34  2  0
 34 35  1  0
 35 36  2  0
 36  4  1  0
 15 11  1  0
 29 16  1  0
 36 31  1  0
 28 23  1  0
M  END
>  <Title>  (603) 
idAAVGgen14

$$$$

     RDKit          2D

 14 14  0  0  0  0  0  0  0  0999 V2000
    8.4786   -3.8971    0.0000 C   0  0  0  0  0  0  0  0  0  0  0  0
    7.7286   -2.5981    0.0000 C   0  0  0  0  0  0  0  0  0  0  0  0
    6.2286   -2.5981    0.0000 C   0  0  0  0  0  0  0  0  0  0  0  0
    5.4786   -1.2990    0.0000 N   0  0  0  0  0  0  0  0  0  0  0  0
    3.9786   -1.2990    0.0000 C   0  0  0  0  0  0  0  0  0  0  0  0
    3.2286   -2.5981    0.0000 O   0  0  0  0  0  0  0  0  0  0  0  0
    3.2286   -0.0000    0.0000 C   0  0  0  0  0  0  0  0  0  0  0  0
    1.7286    0.0000    0.0000 C   0  0  0  0  0  0  0  0  0  0  0  0
    1.0777    1.3515    0.0000 C   0  0  0  0  0  0  0  0  0  0  0  0
   -0.3846    1.6852    0.0000 S   0  0  0  0  0  0  0  0  0  0  0  0
   -1.5574    0.7500    0.0000 C   0  0  0  0  0  0  0  0  0  0  0  0
   -1.5574   -0.7500    0.0000 C   0  0  0  0  0  0  0  0  0  0  0  0
   -0.3846   -1.6852    0.0000 C   0  0  0  0  0  0  0  0  0  0  0  0
    1.0777   -1.3515    0.0000 C   0  0  0  0  0  0  0  0  0  0  0  0
  1  2  1  0
  2  3  2  3
  3  4  1  0
  4  5  1  0
  5  6  2  0
  5  7  1  0
  7  8  1  0
  8  9  2  0
  9 10  1  0
 10 11  1  0
 11 12  1  0
 12 13  1  0
 13 14  2  0
 14  8  1  0
M  END
>  <Title>  (604) 
idAAVHgen14

$$$$

     RDKit          2D

  4  3  0  0  0  0  0  0  0  0999 V2000
    0.0000    0.0000    0.0000 C   0  0  0  0  0  0  0  0  0  0  0  0
    1.2990    0.7500    0.0000 C   0  0  0  0  0  0  0  0  0  0  0  0
    2.5981   -0.0000    0.0000 C   0  0  0  0  0  0  0  0  0  0  0  0
    3.8971    0.7500    0.0000 C   0  0  0  0  0  0  0  0  0  0  0  0
  1  2  2  0
  2  3  1  0
  3  4  2  0
M  END
>  <Title>  (605) 
idAAVIgen14

$$$$

     RDKit          2D

 46 51  0  0  0  0  0  0  0  0999 V2000
  -10.3488    1.4425    0.0000 C   0  0  0  0  0  0  0  0  0  0  0  0
   -9.0498    2.1925    0.0000 C   0  0  0  0  0  0  0  0  0  0  0  0
   -7.7508    1.4425    0.0000 C   0  0  0  0  0  0  0  0  0  0  0  0
   -6.4517    2.1925    0.0000 C   0  0  0  0  0  0  0  0  0  0  0  0
   -6.4517    3.6925    0.0000 C   0  0  0  0  0  0  0  0  0  0  0  0
   -5.1527    1.4425    0.0000 N   0  0  0  0  0  0  0  0  0  0  0  0
   -5.1527   -0.0575    0.0000 C   0  0  0  0  0  0  0  0  0  0  0  0
   -6.4517   -0.8075    0.0000 O   0  0  0  0  0  0  0  0  0  0  0  0
   -3.8536   -0.8075    0.0000 C   0  0  0  0  0  0  0  0  0  0  0  0
   -3.8536   -2.3075    0.0000 C   0  0  0  0  0  0  0  0  0  0  0  0
   -5.0672   -3.1891    0.0000 C   0  0  0  0  0  0  0  0  0  0  0  0
   -4.6036   -4.6157    0.0000 S   0  0  0  0  0  4  0  0  0  0  0  0
   -3.1036   -4.6157    0.0000 N   0  0  0  0  0  0  0  0  0  0  0  0
   -2.6401   -3.1891    0.0000 N   0  0  0  0  0  0  0  0  0  0  0  0
   -1.2135   -2.7256    0.0000 N   0  0  0  0  0  0  0  0  0  0  0  0
   -0.0000   -3.6073    0.0000 C   0  0  0  0  0  0  0  0  0  0  0  0
    1.2135   -2.7256    0.0000 C   0  0  0  0  0  0  0  0  0  0  0  0
    2.6401   -3.1891    0.0000 C   0  0  0  0  0  0  0  0  0  0  0  0
    3.7548   -2.1855    0.0000 O   0  0  0  0  0  0  0  0  0  0  0  0
    2.9520   -4.6564    0.0000 N   0  0  0  0  0  0  0  0  0  0  0  0
    4.3786   -5.1199    0.0000 C   0  0  0  0  0  0  0  0  0  0  0  0
    5.5921   -4.2382    0.0000 N   0  0  0  0  0  0  0  0  0  0  0  0
    6.8056   -5.1199    0.0000 N   0  0  0  0  0  0  0  0  0  0  0  0
    6.3421   -6.5465    0.0000 N   0  0  0  0  0  0  0  0  0  0  0  0
    4.8421   -6.5465    0.0000 N   0  0  0  0  0  0  0  0  0  0  0  0
    3.9604   -7.7600    0.0000 N   0  0  0  0  0  0  0  0  0  0  0  0
    4.4239   -9.1866    0.0000 C   0  0  0  0  0  0  0  0  0  0  0  0
    3.2104  -10.0683    0.0000 C   0  0  0  0  0  0  0  0  0  0  0  0
    1.9969   -9.1866    0.0000 N   0  0  0  0  0  0  0  0  0  0  0  0
    0.5703   -9.6501    0.0000 C   0  0  0  0  0  0  0  0  0  0  0  0
    0.2584  -11.1173    0.0000 O   0  0  0  0  0  0  0  0  0  0  0  0
   -0.5444   -8.6464    0.0000 N   0  0  0  0  0  0  0  0  0  0  0  0
   -1.9710   -9.1099    0.0000 C   0  0  0  0  0  0  0  0  0  0  0  0
   -3.0857   -8.1062    0.0000 N   0  0  0  0  0  0  0  0  0  0  0  0
   -4.5123   -8.5698    0.0000 N   0  0  0  0  0  0  0  0  0  0  0  0
   -4.8242  -10.0370    0.0000 N   0  0  0  0  0  0  0  0  0  0  0  0
   -3.7095  -11.0407    0.0000 N   0  0  0  0  0  0  0  0  0  0  0  0
   -2.2829  -10.5772    0.0000 N   0  0  0  0  0  0  0  0  0  0  0  0
    2.4604   -7.7600    0.0000 C   0  0  0  0  0  0  0  0  0  0  0  0
    1.5787   -6.5465    0.0000 O   0  0  0  0  0  0  0  0  0  0  0  0
    0.7500   -1.2990    0.0000 C   0  0  0  0  0  0  0  0  0  0  0  0
    1.5000    0.0000    0.0000 C   0  0  0  0  0  0  0  0  0  0  0  0
    0.7500    1.2990    0.0000 C   0  0  0  0  0  0  0  0  0  0  0  0
   -0.7500    1.2990    0.0000 C   0  0  0  0  0  0  0  0  0  0  0  0
   -1.5000    0.0000    0.0000 C   0  0  0  0  0  0  0  0  0  0  0  0
   -0.7500   -1.2990    0.0000 C   0  0  0  0  0  0  0  0  0  0  0  0
  1  2  1  0
  2  3  1  0
  3  4  1  0
  4  5  1  0
  4  6  1  0
  6  7  1  0
  7  8  2  0
  7  9  1  0
  9 10  1  0
 10 11  2  0
 11 12  1  0
 12 13  2  0
 13 14  1  0
 14 15  1  0
 15 16  1  0
 16 17  2  0
 17 18  1  0
 18 19  2  0
 18 20  1  0
 20 21  1  0
 21 22  2  0
 22 23  1  0
 23 24  2  0
 24 25  1  0
 25 26  1  0
 26 27  1  0
 27 28  1  0
 28 29  1  0
 29 30  1  0
 30 31  2  0
 30 32  1  0
 32 33  1  0
 33 34  2  0
 34 35  1  0
 35 36  2  0
 36 37  1  0
 37 38  2  0
 29 39  1  0
 39 40  2  0
 17 41  1  0
 41 42  2  0
 42 43  1  0
 43 44  2  0
 44 45  1  0
 45 46  2  0
 14 10  1  0
 46 15  1  0
 25 21  1  0
 39 26  1  0
 46 41  1  0
 38 33  1  0
M  END
>  <Title>  (606) 
idAAVJgen14

$$$$

     RDKit          2D

 15 15  0  0  0  0  0  0  0  0999 V2000
   13.5000    0.0000    0.0000 C   0  0  0  0  0  0  0  0  0  0  0  0
   12.0000    0.0000    0.0000 C   0  0  0  0  0  0  0  0  0  0  0  0
   10.5000    0.0000    0.0000 C   0  0  0  0  0  0  0  0  0  0  0  0
    9.0000    0.0000    0.0000 C   0  0  0  0  0  0  0  0  0  0  0  0
    7.5000    0.0000    0.0000 C   0  0  0  0  0  0  0  0  0  0  0  0
    6.0000    0.0000    0.0000 C   0  0  0  0  0  0  0  0  0  0  0  0
    4.5000    0.0000    0.0000 C   0  0  0  0  0  0  0  0  0  0  0  0
    3.0000    0.0000    0.0000 C   0  0  0  0  0  0  0  0  0  0  0  0
    1.5000    0.0000    0.0000 C   0  0  0  0  0  0  0  0  0  0  0  0
    0.7500   -1.2990    0.0000 C   0  0  0  0  0  0  0  0  0  0  0  0
   -0.7500   -1.2990    0.0000 C   0  0  0  0  0  0  0  0  0  0  0  0
   -1.5000    0.0000    0.0000 C   0  0  0  0  0  0  0  0  0  0  0  0
   -3.0000    0.0000    0.0000 C   0  0  0  0  0  0  0  0  0  0  0  0
   -0.7500    1.2990    0.0000 C   0  0  0  0  0  0  0  0  0  0  0  0
    0.7500    1.2990    0.0000 C   0  0  0  0  0  0  0  0  0  0  0  0
  1  2  3  0
  2  3  1  0
  3  4  3  0
  4  5  1  0
  5  6  3  0
  6  7  1  0
  7  8  3  0
  8  9  1  0
  9 10  2  0
 10 11  1  0
 11 12  2  0
 12 13  1  0
 12 14  1  0
 14 15  2  0
 15  9  1  0
M  END
>  <Title>  (607) 
idAAVKgen14

$$$$

     RDKit          2D

  5  5  0  0  0  0  0  0  0  0999 V2000
    1.2760    0.0000    0.0000 C   0  0  0  0  0  0  0  0  0  0  0  0
    0.3943    1.2135    0.0000 C   0  0  0  0  0  0  0  0  0  0  0  0
   -1.0323    0.7500    0.0000 N   0  0  0  0  0  0  0  0  0  0  0  0
   -1.0323   -0.7500    0.0000 C   0  0  0  0  0  0  0  0  0  0  0  0
    0.3943   -1.2135    0.0000 C   0  0  0  0  0  0  0  0  0  0  0  0
  1  2  2  0
  2  3  1  0
  3  4  2  0
  4  5  1  0
  5  1  1  0
M  END
>  <Title>  (608) 
idAAVLgen14

$$$$

     RDKit          2D

 51 58  0  0  0  0  0  0  0  0999 V2000
   -1.1682   -8.5557    0.0000 C   0  0  0  0  0  0  0  0  0  0  0  0
    0.3318   -8.5557    0.0000 C   0  0  0  0  0  0  0  0  0  0  0  0
    1.2135   -9.7692    0.0000 C   0  0  0  0  0  0  0  0  0  0  0  0
    2.6401   -9.3057    0.0000 C   0  0  0  0  0  0  0  0  0  0  0  0
    2.6401   -7.8057    0.0000 N   0  0  0  0  0  0  0  0  0  0  0  0
    1.2135   -7.3421    0.0000 N   0  0  0  0  0  0  0  0  0  0  0  0
    0.7500   -5.9156    0.0000 C   0  0  0  0  0  0  0  0  0  0  0  0
    1.9635   -5.0339    0.0000 C   0  0  0  0  0  0  0  0  0  0  0  0
    2.4271   -3.6073    0.0000 C   0  0  0  0  0  0  0  0  0  0  0  0
    1.9635   -2.1807    0.0000 C   0  0  0  0  0  0  0  0  0  0  0  0
    3.1771   -1.2990    0.0000 C   0  0  0  0  0  0  0  0  0  0  0  0
    3.0203    0.1927    0.0000 O   0  0  0  0  0  0  0  0  0  0  0  0
    4.5474   -1.9091    0.0000 N   0  0  0  0  0  0  0  0  0  0  0  0
    5.7609   -1.0275    0.0000 C   0  0  0  0  0  0  0  0  0  0  0  0
    5.7609    0.4725    0.0000 N   0  0  0  0  0  0  0  0  0  0  0  0
    7.1875    0.9361    0.0000 N   0  0  0  0  0  0  0  0  0  0  0  0
    8.0692   -0.2775    0.0000 N   0  0  0  0  0  0  0  0  0  0  0  0
    7.1875   -1.4910    0.0000 N   0  0  0  0  0  0  0  0  0  0  0  0
    7.6510   -2.9176    0.0000 N   0  0  0  0  0  0  0  0  0  0  0  0
    9.0776   -3.3811    0.0000 C   0  0  0  0  0  0  0  0  0  0  0  0
    9.0776   -4.8811    0.0000 C   0  0  0  0  0  0  0  0  0  0  0  0
    7.6510   -5.3446    0.0000 N   0  0  0  0  0  0  0  0  0  0  0  0
    7.1875   -6.7712    0.0000 C   0  0  0  0  0  0  0  0  0  0  0  0
    8.1912   -7.8859    0.0000 O   0  0  0  0  0  0  0  0  0  0  0  0
    5.7203   -7.0831    0.0000 N   0  0  0  0  0  0  0  0  0  0  0  0
    5.2567   -8.5097    0.0000 C   0  0  0  0  0  0  0  0  0  0  0  0
    3.7895   -8.8215    0.0000 N   0  0  0  0  0  0  0  0  0  0  0  0
    3.3260  -10.2481    0.0000 N   0  0  0  0  0  0  0  0  0  0  0  0
    4.3297  -11.3628    0.0000 N   0  0  0  0  0  0  0  0  0  0  0  0
    5.7969  -11.0510    0.0000 N   0  0  0  0  0  0  0  0  0  0  0  0
    6.2604   -9.6244    0.0000 N   0  0  0  0  0  0  0  0  0  0  0  0
    6.7693   -4.1311    0.0000 C   0  0  0  0  0  0  0  0  0  0  0  0
    5.2693   -4.1311    0.0000 O   0  0  0  0  0  0  0  0  0  0  0  0
    0.7500   -1.2990    0.0000 C   0  0  0  0  0  0  0  0  0  0  0  0
    1.5000    0.0000    0.0000 C   0  0  0  0  0  0  0  0  0  0  0  0
    0.7500    1.2990    0.0000 C   0  0  0  0  0  0  0  0  0  0  0  0
   -0.7500    1.2990    0.0000 C   0  0  0  0  0  0  0  0  0  0  0  0
   -1.5000    0.0000    0.0000 C   0  0  0  0  0  0  0  0  0  0  0  0
   -0.7500   -1.2990    0.0000 C   0  0  0  0  0  0  0  0  0  0  0  0
   -1.9635   -2.1807    0.0000 C   0  0  0  0  0  0  0  0  0  0  0  0
   -2.9672   -1.0660    0.0000 C   0  0  0  0  0  0  0  0  0  0  0  0
   -4.4344   -1.3779    0.0000 C   0  0  0  0  0  0  0  0  0  0  0  0
   -4.8980   -2.8045    0.0000 C   0  0  0  0  0  0  0  0  0  0  0  0
   -3.8943   -3.9192    0.0000 C   0  0  0  0  0  0  0  0  0  0  0  0
   -2.4271   -3.6073    0.0000 C   0  0  0  0  0  0  0  0  0  0  0  0
   -1.9635   -5.0339    0.0000 C   0  0  0  0  0  0  0  0  0  0  0  0
   -3.3338   -5.6440    0.0000 C   0  0  0  0  0  0  0  0  0  0  0  0
   -3.4906   -7.1358    0.0000 C   0  0  0  0  0  0  0  0  0  0  0  0
   -2.2771   -8.0175    0.0000 C   0  0  0  0  0  0  0  0  0  0  0  0
   -0.9068   -7.4073    0.0000 C   0  0  0  0  0  0  0  0  0  0  0  0
   -0.7500   -5.9156    0.0000 C   0  0  0  0  0  0  0  0  0  0  0  0
  1  2  1  0
  2  3  2  0
  3  4  1  0
  4  5  2  0
  5  6  1  0
  6  7  1  0
  7  8  2  0
  8  9  1  0
  9 10  2  0
 10 11  1  0
 11 12  2  0
 11 13  1  0
 13 14  1  0
 14 15  2  0
 15 16  1  0
 16 17  2  0
 17 18  1  0
 18 19  1  0
 19 20  1  0
 20 21  1  0
 21 22  1  0
 22 23  1  0
 23 24  2  0
 23 25  1  0
 25 26  1  0
 26 27  2  0
 27 28  1  0
 28 29  2  0
 29 30  1  0
 30 31  2  0
 22 32  1  0
 32 33  2  0
 10 34  1  0
 34 35  2  0
 35 36  1  0
 36 37  2  0
 37 38  1  0
 38 39  2  0
 39 40  1  0
 40 41  2  0
 41 42  1  0
 42 43  2  0
 43 44  1  0
 44 45  2  0
 45 46  1  0
 46 47  2  0
 47 48  1  0
 48 49  2  0
 49 50  1  0
 50 51  2  0
  6  2  1  0
 51  7  1  0
 18 14  1  0
 32 19  1  0
 39 34  1  0
 45 40  1  0
 51 46  1  0
 31 26  1  0
M  END
>  <Title>  (609) 
idAAVMgen14

$$$$

     RDKit          2D

  7  7  0  0  0  0  0  0  0  0999 V2000
    3.0000    0.0000    0.0000 C   0  0  0  0  0  0  0  0  0  0  0  0
    1.5000    0.0000    0.0000 C   0  0  0  0  0  0  0  0  0  0  0  0
    0.7500   -1.2990    0.0000 C   0  0  0  0  0  0  0  0  0  0  0  0
   -0.7500   -1.2990    0.0000 C   0  0  0  0  0  0  0  0  0  0  0  0
   -1.5000    0.0000    0.0000 C   0  0  0  0  0  0  0  0  0  0  0  0
   -0.7500    1.2990    0.0000 C   0  0  0  0  0  0  0  0  0  0  0  0
    0.7500    1.2990    0.0000 C   0  0  0  0  0  0  0  0  0  0  0  0
  1  2  1  0
  2  3  1  0
  3  4  1  0
  4  5  1  0
  5  6  1  0
  6  7  1  0
  7  2  1  0
M  END
>  <Title>  (610) 
idAAVNgen14

$$$$

     RDKit          2D

 16 16  0  0  0  0  0  0  0  0999 V2000
    9.7500   -3.8971    0.0000 C   0  0  0  0  0  0  0  0  0  0  0  0
    8.2500   -3.8971    0.0000 C   0  0  0  0  0  0  0  0  0  0  0  0
    7.5000   -2.5981    0.0000 C   0  0  0  0  0  0  0  0  0  0  0  0
    6.0000   -2.5981    0.0000 C   0  0  0  0  0  0  0  0  0  0  0  0
    5.2500   -1.2990    0.0000 C   0  0  0  0  0  0  0  0  0  0  0  0
    6.0000    0.0000    0.0000 O   0  0  0  0  0  0  0  0  0  0  0  0
    3.7500   -1.2990    0.0000 N   0  0  0  0  0  0  0  0  0  0  0  0
    3.0000    0.0000    0.0000 C   0  0  0  0  0  0  0  0  0  0  0  0
    1.5000    0.0000    0.0000 C   0  0  0  0  0  0  0  0  0  0  0  0
    0.7500   -1.2990    0.0000 C   0  0  0  0  0  0  0  0  0  0  0  0
   -0.7500   -1.2990    0.0000 C   0  0  0  0  0  0  0  0  0  0  0  0
   -1.5000    0.0000    0.0000 C   0  0  0  0  0  0  0  0  0  0  0  0
   -0.7500    1.2990    0.0000 C   0  0  0  0  0  0  0  0  0  0  0  0
    0.7500    1.2990    0.0000 C   0  0  0  0  0  0  0  0  0  0  0  0
    8.2500   -1.2990    0.0000 O   0  0  0  0  0  0  0  0  0  0  0  0
    9.7500   -1.2990    0.0000 C   0  0  0  0  0  0  0  0  0  0  0  0
  1  2  1  0
  2  3  1  0
  3  4  1  0
  4  5  1  0
  5  6  2  0
  5  7  1  0
  7  8  1  0
  8  9  1  0
  9 10  2  0
 10 11  1  0
 11 12  1  0
 12 13  1  0
 13 14  2  0
  3 15  1  0
 15 16  1  0
 14  9  1  0
M  END
>  <Title>  (611) 
idAAVOgen14

$$$$

     RDKit          2D

 10 11  0  0  0  0  0  0  0  0999 V2000
   -2.6401   -3.1891    0.0000 C   0  0  0  0  0  0  0  0  0  0  0  0
   -1.2135   -2.7256    0.0000 C   0  0  0  0  0  0  0  0  0  0  0  0
   -0.0000   -3.6073    0.0000 C   0  0  0  0  0  0  0  0  0  0  0  0
    1.2135   -2.7256    0.0000 N   0  0  0  0  0  0  0  0  0  0  0  0
    0.7500   -1.2990    0.0000 C   0  0  0  0  0  0  0  0  0  0  0  0
    1.5000    0.0000    0.0000 N   0  0  0  0  0  0  0  0  0  0  0  0
    0.7500    1.2990    0.0000 N   0  0  0  0  0  0  0  0  0  0  0  0
   -0.7500    1.2990    0.0000 N   0  0  0  0  0  0  0  0  0  0  0  0
   -1.5000    0.0000    0.0000 N   0  0  0  0  0  0  0  0  0  0  0  0
   -0.7500   -1.2990    0.0000 C   0  0  0  0  0  0  0  0  0  0  0  0
  1  2  1  0
  2  3  1  0
  3  4  1  0
  4  5  1  0
  5  6  2  0
  6  7  1  0
  7  8  2  0
  8  9  1  0
  9 10  2  0
 10  2  1  0
 10  5  1  0
M  END
>  <Title>  (612) 
idAAVPgen14

$$$$

     RDKit          2D

  8  8  0  0  0  0  0  0  0  0999 V2000
    3.5260   -1.2990    0.0000 C   0  0  0  0  0  0  0  0  0  0  0  0
    2.7760    0.0000    0.0000 C   0  0  0  0  0  0  0  0  0  0  0  0
    3.5260    1.2990    0.0000 O   0  0  0  0  0  0  0  0  0  0  0  0
    1.2760    0.0000    0.0000 N   0  0  0  0  0  0  0  0  0  0  0  0
    0.3943    1.2135    0.0000 C   0  0  0  0  0  0  0  0  0  0  0  0
   -1.0323    0.7500    0.0000 C   0  0  0  0  0  0  0  0  0  0  0  0
   -1.0323   -0.7500    0.0000 C   0  0  0  0  0  0  0  0  0  0  0  0
    0.3943   -1.2135    0.0000 C   0  0  0  0  0  0  0  0  0  0  0  0
  1  2  1  0
  2  3  2  0
  2  4  1  0
  4  5  1  0
  5  6  2  0
  6  7  1  0
  7  8  2  0
  8  4  1  0
M  END
>  <Title>  (613) 
idAAVQgen14

$$$$

     RDKit          2D

  6  6  0  0  0  0  0  0  0  0999 V2000
    2.7760    0.0000    0.0000 C   0  0  0  0  0  0  0  0  0  0  0  0
    1.2760    0.0000    0.0000 C   0  0  0  0  0  0  0  0  0  0  0  0
    0.3943    1.2135    0.0000 N   0  0  0  0  0  0  0  0  0  0  0  0
   -1.0323    0.7500    0.0000 C   0  0  0  0  0  0  0  0  0  0  0  0
   -1.0323   -0.7500    0.0000 C   0  0  0  0  0  0  0  0  0  0  0  0
    0.3943   -1.2135    0.0000 C   0  0  0  0  0  0  0  0  0  0  0  0
  1  2  1  0
  2  3  2  0
  3  4  1  0
  4  5  1  0
  5  6  2  0
  6  2  1  0
M  END
>  <Title>  (614) 
idAAVRgen14

$$$$

     RDKit          2D

 54 61  0  0  0  0  0  0  0  0999 V2000
    1.0838   -9.3334    0.0000 C   0  0  0  0  0  0  0  0  0  0  0  0
    0.7500   -7.8710    0.0000 C   0  0  0  0  0  0  0  0  0  0  0  0
    2.1015   -7.2201    0.0000 C   0  0  0  0  0  0  0  0  0  0  0  0
    3.0367   -6.0474    0.0000 C   0  0  0  0  0  0  0  0  0  0  0  0
    3.3705   -4.5850    0.0000 C   0  0  0  0  0  0  0  0  0  0  0  0
    3.0367   -3.1226    0.0000 C   0  0  0  0  0  0  0  0  0  0  0  0
    2.1015   -1.9499    0.0000 C   0  0  0  0  0  0  0  0  0  0  0  0
    3.0367   -0.7771    0.0000 C   0  0  0  0  0  0  0  0  0  0  0  0
    2.4887    0.6192    0.0000 O   0  0  0  0  0  0  0  0  0  0  0  0
    4.5199   -1.0007    0.0000 N   0  0  0  0  0  0  0  0  0  0  0  0
    5.4552    0.1721    0.0000 C   0  0  0  0  0  0  0  0  0  0  0  0
    5.0561    1.6180    0.0000 N   0  0  0  0  0  0  0  0  0  0  0  0
    6.3080    2.4444    0.0000 N   0  0  0  0  0  0  0  0  0  0  0  0
    7.4807    1.5091    0.0000 N   0  0  0  0  0  0  0  0  0  0  0  0
    6.9537    0.1048    0.0000 N   0  0  0  0  0  0  0  0  0  0  0  0
    7.7800   -1.1471    0.0000 N   0  0  0  0  0  0  0  0  0  0  0  0
    9.2785   -1.2144    0.0000 C   0  0  0  0  0  0  0  0  0  0  0  0
    9.6775   -2.6603    0.0000 C   0  0  0  0  0  0  0  0  0  0  0  0
    8.4257   -3.4867    0.0000 N   0  0  0  0  0  0  0  0  0  0  0  0
    8.3584   -4.9852    0.0000 C   0  0  0  0  0  0  0  0  0  0  0  0
    9.6225   -5.7927    0.0000 O   0  0  0  0  0  0  0  0  0  0  0  0
    7.0270   -5.6761    0.0000 N   0  0  0  0  0  0  0  0  0  0  0  0
    6.9597   -7.1746    0.0000 C   0  0  0  0  0  0  0  0  0  0  0  0
    5.6283   -7.8656    0.0000 N   0  0  0  0  0  0  0  0  0  0  0  0
    5.5610   -9.3641    0.0000 N   0  0  0  0  0  0  0  0  0  0  0  0
    6.8251  -10.1716    0.0000 N   0  0  0  0  0  0  0  0  0  0  0  0
    8.1565   -9.4806    0.0000 N   0  0  0  0  0  0  0  0  0  0  0  0
    8.2238   -7.9821    0.0000 N   0  0  0  0  0  0  0  0  0  0  0  0
    7.2529   -2.5514    0.0000 C   0  0  0  0  0  0  0  0  0  0  0  0
    5.8070   -2.9505    0.0000 O   0  0  0  0  0  0  0  0  0  0  0  0
    0.7500   -1.2990    0.0000 C   0  0  0  0  0  0  0  0  0  0  0  0
    1.5000    0.0000    0.0000 C   0  0  0  0  0  0  0  0  0  0  0  0
    0.7500    1.2990    0.0000 C   0  0  0  0  0  0  0  0  0  0  0  0
   -0.7500    1.2990    0.0000 C   0  0  0  0  0  0  0  0  0  0  0  0
   -1.5000    0.0000    0.0000 C   0  0  0  0  0  0  0  0  0  0  0  0
   -0.7500   -1.2990    0.0000 C   0  0  0  0  0  0  0  0  0  0  0  0
   -2.1015   -1.9499    0.0000 C   0  0  0  0  0  0  0  0  0  0  0  0
   -2.6495   -0.5536    0.0000 C   0  0  0  0  0  0  0  0  0  0  0  0
   -4.1327   -0.3300    0.0000 C   0  0  0  0  0  0  0  0  0  0  0  0
   -5.0679   -1.5027    0.0000 C   0  0  0  0  0  0  0  0  0  0  0  0
   -4.5199   -2.8990    0.0000 C   0  0  0  0  0  0  0  0  0  0  0  0
   -3.0367   -3.1226    0.0000 C   0  0  0  0  0  0  0  0  0  0  0  0
   -3.3705   -4.5850    0.0000 C   0  0  0  0  0  0  0  0  0  0  0  0
   -4.8038   -4.1429    0.0000 C   0  0  0  0  0  0  0  0  0  0  0  0
   -5.9034   -5.1631    0.0000 C   0  0  0  0  0  0  0  0  0  0  0  0
   -5.5696   -6.6255    0.0000 C   0  0  0  0  0  0  0  0  0  0  0  0
   -4.1363   -7.0677    0.0000 C   0  0  0  0  0  0  0  0  0  0  0  0
   -3.0367   -6.0474    0.0000 C   0  0  0  0  0  0  0  0  0  0  0  0
   -2.1015   -7.2201    0.0000 C   0  0  0  0  0  0  0  0  0  0  0  0
   -3.3408   -8.0651    0.0000 C   0  0  0  0  0  0  0  0  0  0  0  0
   -3.2287   -9.5609    0.0000 C   0  0  0  0  0  0  0  0  0  0  0  0
   -1.8773  -10.2118    0.0000 C   0  0  0  0  0  0  0  0  0  0  0  0
   -0.6379   -9.3668    0.0000 C   0  0  0  0  0  0  0  0  0  0  0  0
   -0.7500   -7.8710    0.0000 C   0  0  0  0  0  0  0  0  0  0  0  0
  1  2  1  0
  2  3  1  0
  3  4  1  0
  4  5  1  0
  5  6  1  0
  6  7  1  0
  7  8  1  0
  8  9  2  0
  8 10  1  0
 10 11  1  0
 11 12  2  0
 12 13  1  0
 13 14  2  0
 14 15  1  0
 15 16  1  0
 16 17  1  0
 17 18  1  0
 18 19  1  0
 19 20  1  0
 20 21  2  0
 20 22  1  0
 22 23  1  0
 23 24  2  0
 24 25  1  0
 25 26  2  0
 26 27  1  0
 27 28  2  0
 19 29  1  0
 29 30  2  0
  7 31  1  0
 31 32  2  0
 32 33  1  0
 33 34  2  0
 34 35  1  0
 35 36  2  0
 36 37  1  0
 37 38  2  0
 38 39  1  0
 39 40  2  0
 40 41  1  0
 41 42  2  0
 42 43  1  0
 43 44  2  0
 44 45  1  0
 45 46  2  0
 46 47  1  0
 47 48  2  0
 48 49  1  0
 49 50  2  0
 50 51  1  0
 51 52  2  0
 52 53  1  0
 53 54  2  0
 54  2  1  0
 15 11  1  0
 29 16  1  0
 36 31  1  0
 42 37  1  0
 48 43  1  0
 54 49  1  0
 28 23  1  0
M  END
>  <Title>  (615) 
idAAVSgen14

$$$$

     RDKit          2D

  4  3  0  0  0  0  0  0  0  0999 V2000
    0.0000    0.0000    0.0000 C   0  0  0  0  0  0  0  0  0  0  0  0
    1.2990    0.7500    0.0000 C   0  0  0  0  0  0  0  0  0  0  0  0
    2.5981   -0.0000    0.0000 C   0  0  0  0  0  0  0  0  0  0  0  0
    3.8971    0.7500    0.0000 C   0  0  0  0  0  0  0  0  0  0  0  0
  1  2  1  0
  2  3  2  3
  3  4  1  0
M  END
>  <Title>  (616) 
idAAVTgen14

$$$$

     RDKit          2D

 16 18  0  0  0  0  0  0  0  0999 V2000
   -0.0000   -6.0850    0.0000 C   0  0  0  0  0  0  0  0  0  0  0  0
   -0.0000   -4.5850    0.0000 C   0  0  0  0  0  0  0  0  0  0  0  0
    1.3515   -3.9342    0.0000 C   0  0  0  0  0  0  0  0  0  0  0  0
    1.6852   -2.4718    0.0000 C   0  0  0  0  0  0  0  0  0  0  0  0
    0.7500   -1.2990    0.0000 C   0  0  0  0  0  0  0  0  0  0  0  0
    1.5000    0.0000    0.0000 C   0  0  0  0  0  0  0  0  0  0  0  0
    0.7500    1.2990    0.0000 C   0  0  0  0  0  0  0  0  0  0  0  0
   -0.7500    1.2990    0.0000 C   0  0  0  0  0  0  0  0  0  0  0  0
   -1.5000    0.0000    0.0000 C   0  0  0  0  0  0  0  0  0  0  0  0
   -0.7500   -1.2990    0.0000 C   0  0  0  0  0  0  0  0  0  0  0  0
   -1.6852   -2.4718    0.0000 C   0  0  0  0  0  0  0  0  0  0  0  0
   -3.1186   -2.0297    0.0000 C   0  0  0  0  0  0  0  0  0  0  0  0
   -4.2182   -3.0499    0.0000 C   0  0  0  0  0  0  0  0  0  0  0  0
   -3.8844   -4.5123    0.0000 C   0  0  0  0  0  0  0  0  0  0  0  0
   -2.4510   -4.9544    0.0000 C   0  0  0  0  0  0  0  0  0  0  0  0
   -1.3515   -3.9342    0.0000 C   0  0  0  0  0  0  0  0  0  0  0  0
  1  2  1  0
  2  3  1  0
  3  4  2  0
  4  5  1  0
  5  6  2  0
  6  7  1  0
  7  8  2  0
  8  9  1  0
  9 10  2  0
 10 11  1  0
 11 12  2  0
 12 13  1  0
 13 14  2  0
 14 15  1  0
 15 16  2  0
 16  2  1  0
 10  5  1  0
 16 11  1  0
M  END
>  <Title>  (617) 
idAAVUgen14

$$$$

     RDKit          2D

 38 43  0  0  0  0  0  0  0  0999 V2000
   -3.8536   -0.8075    0.0000 C   0  0  0  0  0  0  0  0  0  0  0  0
   -3.8536   -2.3075    0.0000 C   0  0  0  0  0  0  0  0  0  0  0  0
   -5.0672   -3.1891    0.0000 N   0  0  0  0  0  0  0  0  0  0  0  0
   -4.6036   -4.6157    0.0000 N   0  0  0  0  0  0  0  0  0  0  0  0
   -3.1036   -4.6157    0.0000 N   0  0  0  0  0  0  0  0  0  0  0  0
   -2.6401   -3.1891    0.0000 N   0  0  0  0  0  0  0  0  0  0  0  0
   -1.2135   -2.7256    0.0000 N   0  0  0  0  0  0  0  0  0  0  0  0
   -0.0000   -3.6073    0.0000 C   0  0  0  0  0  0  0  0  0  0  0  0
    1.2135   -2.7256    0.0000 C   0  0  0  0  0  0  0  0  0  0  0  0
    2.6401   -3.1891    0.0000 C   0  0  0  0  0  0  0  0  0  0  0  0
    3.7548   -2.1855    0.0000 O   0  0  0  0  0  0  0  0  0  0  0  0
    2.9520   -4.6564    0.0000 N   0  0  0  0  0  0  0  0  0  0  0  0
    4.3786   -5.1199    0.0000 C   0  0  0  0  0  0  0  0  0  0  0  0
    5.5921   -4.2382    0.0000 N   0  0  0  0  0  0  0  0  0  0  0  0
    6.8056   -5.1199    0.0000 N   0  0  0  0  0  0  0  0  0  0  0  0
    6.3421   -6.5465    0.0000 N   0  0  0  0  0  0  0  0  0  0  0  0
    4.8421   -6.5465    0.0000 N   0  0  0  0  0  0  0  0  0  0  0  0
    3.9604   -7.7600    0.0000 N   0  0  0  0  0  0  0  0  0  0  0  0
    4.4239   -9.1866    0.0000 C   0  0  0  0  0  0  0  0  0  0  0  0
    3.2104  -10.0683    0.0000 C   0  0  0  0  0  0  0  0  0  0  0  0
    1.9969   -9.1866    0.0000 N   0  0  0  0  0  0  0  0  0  0  0  0
    0.5703   -9.6501    0.0000 C   0  0  0  0  0  0  0  0  0  0  0  0
    0.2584  -11.1173    0.0000 O   0  0  0  0  0  0  0  0  0  0  0  0
   -0.5444   -8.6464    0.0000 N   0  0  0  0  0  0  0  0  0  0  0  0
   -1.9710   -9.1099    0.0000 C   0  0  0  0  0  0  0  0  0  0  0  0
   -3.0857   -8.1062    0.0000 N   0  0  0  0  0  0  0  0  0  0  0  0
   -4.5123   -8.5698    0.0000 N   0  0  0  0  0  0  0  0  0  0  0  0
   -4.8242  -10.0370    0.0000 N   0  0  0  0  0  0  0  0  0  0  0  0
   -3.7095  -11.0407    0.0000 N   0  0  0  0  0  0  0  0  0  0  0  0
   -2.2829  -10.5772    0.0000 N   0  0  0  0  0  0  0  0  0  0  0  0
    2.4604   -7.7600    0.0000 C   0  0  0  0  0  0  0  0  0  0  0  0
    1.5787   -6.5465    0.0000 O   0  0  0  0  0  0  0  0  0  0  0  0
    0.7500   -1.2990    0.0000 C   0  0  0  0  0  0  0  0  0  0  0  0
    1.5000    0.0000    0.0000 C   0  0  0  0  0  0  0  0  0  0  0  0
    0.7500    1.2990    0.0000 C   0  0  0  0  0  0  0  0  0  0  0  0
   -0.7500    1.2990    0.0000 C   0  0  0  0  0  0  0  0  0  0  0  0
   -1.5000    0.0000    0.0000 C   0  0  0  0  0  0  0  0  0  0  0  0
   -0.7500   -1.2990    0.0000 C   0  0  0  0  0  0  0  0  0  0  0  0
  1  2  1  0
  2  3  2  0
  3  4  1  0
  4  5  2  0
  5  6  1  0
  6  7  1  0
  7  8  1  0
  8  9  2  0
  9 10  1  0
 10 11  2  0
 10 12  1  0
 12 13  1  0
 13 14  2  0
 14 15  1  0
 15 16  2  0
 16 17  1  0
 17 18  1  0
 18 19  1  0
 19 20  1  0
 20 21  1  0
 21 22  1  0
 22 23  2  0
 22 24  1  0
 24 25  1  0
 25 26  2  0
 26 27  1  0
 27 28  2  0
 28 29  1  0
 29 30  2  0
 21 31  1  0
 31 32  2  0
  9 33  1  0
 33 34  2  0
 34 35  1  0
 35 36  2  0
 36 37  1  0
 37 38  2  0
  6  2  1  0
 38  7  1  0
 17 13  1  0
 31 18  1  0
 38 33  1  0
 30 25  1  0
M  END
>  <Title>  (618) 
idAAVVgen14

$$$$

     RDKit          2D

  7  6  0  0  0  0  0  0  0  0999 V2000
    0.0000    0.0000    0.0000 C   0  0  0  0  0  0  0  0  0  0  0  0
    1.2990    0.7500    0.0000 C   0  0  0  0  0  0  0  0  0  0  0  0
    2.5981   -0.0000    0.0000 C   0  0  0  0  0  0  0  0  0  0  0  0
    1.2990    2.2500    0.0000 C   0  0  0  0  0  0  0  0  0  0  0  0
    2.5981    3.0000    0.0000 C   0  0  0  0  0  0  0  0  0  0  0  0
    2.5981    4.5000    0.0000 C   0  0  0  0  0  0  0  0  0  0  0  0
    3.8971    2.2500    0.0000 N   0  0  0  0  0  0  0  0  0  0  0  0
  1  2  1  0
  2  3  1  0
  2  4  1  0
  4  5  1  0
  5  6  1  0
  5  7  1  0
M  END
>  <Title>  (619) 
idAAVWgen14

$$$$

     RDKit          2D

 37 41  0  0  0  0  0  0  0  0999 V2000
   -3.1476   -2.1380    0.0000 C   0  0  0  0  0  0  0  0  0  0  0  0
   -1.6852   -2.4718    0.0000 C   0  0  0  0  0  0  0  0  0  0  0  0
   -1.3515   -3.9342    0.0000 C   0  0  0  0  0  0  0  0  0  0  0  0
   -0.0000   -4.5850    0.0000 C   0  0  0  0  0  0  0  0  0  0  0  0
    1.3515   -3.9342    0.0000 C   0  0  0  0  0  0  0  0  0  0  0  0
    1.6852   -2.4718    0.0000 C   0  0  0  0  0  0  0  0  0  0  0  0
    3.1476   -2.1380    0.0000 C   0  0  0  0  0  0  0  0  0  0  0  0
    3.5898   -0.7046    0.0000 O   0  0  0  0  0  0  0  0  0  0  0  0
    4.1679   -3.2376    0.0000 N   0  0  0  0  0  0  0  0  0  0  0  0
    5.6303   -2.9038    0.0000 C   0  0  0  0  0  0  0  0  0  0  0  0
    6.2198   -1.5245    0.0000 N   0  0  0  0  0  0  0  0  0  0  0  0
    7.7138   -1.6590    0.0000 N   0  0  0  0  0  0  0  0  0  0  0  0
    8.0476   -3.1214    0.0000 N   0  0  0  0  0  0  0  0  0  0  0  0
    6.7599   -3.8907    0.0000 N   0  0  0  0  0  0  0  0  0  0  0  0
    6.6254   -5.3847    0.0000 C   0  0  0  0  0  0  0  0  0  0  0  0
    7.7550   -6.3716    0.0000 C   0  0  0  0  0  0  0  0  0  0  0  0
    7.1655   -7.7509    0.0000 C   0  0  0  0  0  0  0  0  0  0  0  0
    5.6715   -7.6164    0.0000 C   0  0  0  0  0  0  0  0  0  0  0  0
    4.6846   -8.7460    0.0000 O   0  0  0  0  0  0  0  0  0  0  0  0
    3.2129   -8.4561    0.0000 C   0  0  0  0  0  0  0  0  0  0  0  0
    2.7281   -7.0366    0.0000 O   0  0  0  0  0  0  0  0  0  0  0  0
    2.2260   -9.5857    0.0000 N   0  0  0  0  0  0  0  0  0  0  0  0
    0.7543   -9.2959    0.0000 C   0  0  0  0  0  0  0  0  0  0  0  0
    0.2695   -7.8764    0.0000 N   0  0  0  0  0  0  0  0  0  0  0  0
   -1.2023   -7.5865    0.0000 N   0  0  0  0  0  0  0  0  0  0  0  0
   -2.1892   -8.7161    0.0000 N   0  0  0  0  0  0  0  0  0  0  0  0
   -1.7044  -10.1356    0.0000 N   0  0  0  0  0  0  0  0  0  0  0  0
   -0.2326  -10.4255    0.0000 N   0  0  0  0  0  0  0  0  0  0  0  0
    5.3378   -6.1540    0.0000 C   0  0  0  0  0  0  0  0  0  0  0  0
    3.9585   -5.5645    0.0000 O   0  0  0  0  0  0  0  0  0  0  0  0
    0.7500   -1.2990    0.0000 C   0  0  0  0  0  0  0  0  0  0  0  0
    1.5000    0.0000    0.0000 C   0  0  0  0  0  0  0  0  0  0  0  0
    0.7500    1.2990    0.0000 C   0  0  0  0  0  0  0  0  0  0  0  0
   -0.7500    1.2990    0.0000 C   0  0  0  0  0  0  0  0  0  0  0  0
   -1.5000    2.5981    0.0000 O   0  0  0  0  0  0  0  0  0  0  0  0
   -1.5000    0.0000    0.0000 C   0  0  0  0  0  0  0  0  0  0  0  0
   -0.7500   -1.2990    0.0000 C   0  0  0  0  0  0  0  0  0  0  0  0
  1  2  1  0
  2  3  1  0
  3  4  2  0
  4  5  1  0
  5  6  2  0
  6  7  1  0
  7  8  2  0
  7  9  1  0
  9 10  1  0
 10 11  2  0
 11 12  1  0
 12 13  2  0
 13 14  1  0
 14 15  1  0
 15 16  2  0
 16 17  1  0
 17 18  2  0
 18 19  1  0
 19 20  1  0
 20 21  2  0
 20 22  1  0
 22 23  1  0
 23 24  2  0
 24 25  1  0
 25 26  2  0
 26 27  1  0
 27 28  2  0
 18 29  1  0
 29 30  2  0
  6 31  1  0
 31 32  2  0
 32 33  1  0
 33 34  2  0
 34 35  1  0
 34 36  1  0
 36 37  2  0
 37  2  1  0
 14 10  1  0
 29 15  1  0
 37 31  1  0
 28 23  1  0
M  END
>  <Title>  (620) 
idAAVXgen14

$$$$

     RDKit          2D

  7  6  0  0  0  0  0  0  0  0999 V2000
    0.0000    0.0000    0.0000 C   0  0  0  0  0  0  0  0  0  0  0  0
    1.2990    0.7500    0.0000 C   0  0  0  0  0  0  0  0  0  0  0  0
    2.5981   -0.0000    0.0000 C   0  0  0  0  0  0  0  0  0  0  0  0
    1.2990    2.2500    0.0000 C   0  0  0  0  0  0  0  0  0  0  0  0
    2.5981    3.0000    0.0000 C   0  0  0  0  0  0  0  0  0  0  0  0
    2.5981    4.5000    0.0000 C   0  0  0  0  0  0  0  0  0  0  0  0
    3.8971    5.2500    0.0000 N   0  0  0  0  0  0  0  0  0  0  0  0
  1  2  1  0
  2  3  1  0
  2  4  1  0
  4  5  1  0
  5  6  2  3
  6  7  1  0
M  END
>  <Title>  (621) 
idAAVYgen14

$$$$

     RDKit          2D

 37 41  0  0  0  0  0  0  0  0999 V2000
   -3.1981   -1.5132    0.0000 C   0  0  0  0  0  0  0  0  0  0  0  0
   -1.8991   -2.2632    0.0000 C   0  0  0  0  0  0  0  0  0  0  0  0
   -2.1595   -3.7404    0.0000 C   0  0  0  0  0  0  0  0  0  0  0  0
   -1.4095   -5.0395    0.0000 N   0  0  0  0  0  0  0  0  0  0  0  0
   -0.0000   -5.5525    0.0000 C   0  0  0  0  0  0  0  0  0  0  0  0
    1.4095   -5.0395    0.0000 C   0  0  0  0  0  0  0  0  0  0  0  0
    2.1595   -3.7404    0.0000 C   0  0  0  0  0  0  0  0  0  0  0  0
    1.8991   -2.2632    0.0000 C   0  0  0  0  0  0  0  0  0  0  0  0
    3.1981   -1.5132    0.0000 C   0  0  0  0  0  0  0  0  0  0  0  0
    3.1981   -0.0132    0.0000 O   0  0  0  0  0  0  0  0  0  0  0  0
    4.4971   -2.2632    0.0000 N   0  0  0  0  0  0  0  0  0  0  0  0
    5.7962   -1.5132    0.0000 C   0  0  0  0  0  0  0  0  0  0  0  0
    5.9530   -0.0214    0.0000 N   0  0  0  0  0  0  0  0  0  0  0  0
    7.4202    0.2904    0.0000 N   0  0  0  0  0  0  0  0  0  0  0  0
    8.1702   -1.0086    0.0000 N   0  0  0  0  0  0  0  0  0  0  0  0
    7.1665   -2.1233    0.0000 N   0  0  0  0  0  0  0  0  0  0  0  0
    7.4784   -3.5905    0.0000 C   0  0  0  0  0  0  0  0  0  0  0  0
    8.8487   -4.2007    0.0000 C   0  0  0  0  0  0  0  0  0  0  0  0
    8.6919   -5.6924    0.0000 C   0  0  0  0  0  0  0  0  0  0  0  0
    7.2247   -6.0043    0.0000 C   0  0  0  0  0  0  0  0  0  0  0  0
    6.6146   -7.3746    0.0000 C   0  0  0  0  0  0  0  0  0  0  0  0
    7.4962   -8.5881    0.0000 O   0  0  0  0  0  0  0  0  0  0  0  0
    5.1228   -7.5314    0.0000 N   0  0  0  0  0  0  0  0  0  0  0  0
    4.5127   -8.9017    0.0000 C   0  0  0  0  0  0  0  0  0  0  0  0
    3.0209   -9.0585    0.0000 N   0  0  0  0  0  0  0  0  0  0  0  0
    2.4108  -10.4288    0.0000 N   0  0  0  0  0  0  0  0  0  0  0  0
    3.2925  -11.6424    0.0000 N   0  0  0  0  0  0  0  0  0  0  0  0
    4.7843  -11.4856    0.0000 N   0  0  0  0  0  0  0  0  0  0  0  0
    5.3944  -10.1153    0.0000 N   0  0  0  0  0  0  0  0  0  0  0  0
    6.4747   -4.7053    0.0000 C   0  0  0  0  0  0  0  0  0  0  0  0
    4.9829   -4.5485    0.0000 O   0  0  0  0  0  0  0  0  0  0  0  0
    0.7500   -1.2990    0.0000 C   0  0  0  0  0  0  0  0  0  0  0  0
    1.5000    0.0000    0.0000 C   0  0  0  0  0  0  0  0  0  0  0  0
    0.7500    1.2990    0.0000 C   0  0  0  0  0  0  0  0  0  0  0  0
   -0.7500    1.2990    0.0000 C   0  0  0  0  0  0  0  0  0  0  0  0
   -1.5000    0.0000    0.0000 C   0  0  0  0  0  0  0  0  0  0  0  0
   -0.7500   -1.2990    0.0000 C   0  0  0  0  0  0  0  0  0  0  0  0
  1  2  1  0
  2  3  1  0
  3  4  1  0
  4  5  1  0
  5  6  1  0
  6  7  1  0
  7  8  1  0
  8  9  1  0
  9 10  2  0
  9 11  1  0
 11 12  1  0
 12 13  2  0
 13 14  1  0
 14 15  2  0
 15 16  1  0
 16 17  1  0
 17 18  2  0
 18 19  1  0
 19 20  2  0
 20 21  1  0
 21 22  2  0
 21 23  1  0
 23 24  1  0
 24 25  2  0
 25 26  1  0
 26 27  2  0
 27 28  1  0
 28 29  2  0
 20 30  1  0
 30 31  2  0
  8 32  1  0
 32 33  2  0
 33 34  1  0
 34 35  2  0
 35 36  1  0
 36 37  2  0
 37  2  1  0
 16 12  1  0
 30 17  1  0
 37 32  1  0
 29 24  1  0
M  END
>  <Title>  (622) 
idAAVZgen14

$$$$

     RDKit          2D

  7  7  0  0  0  0  0  0  0  0999 V2000
    3.0000    0.0000    0.0000 C   0  0  0  0  0  0  0  0  0  0  0  0
    1.5000    0.0000    0.0000 C   0  0  0  0  0  0  0  0  0  0  0  0
    0.7500   -1.2990    0.0000 C   0  0  0  0  0  0  0  0  0  0  0  0
   -0.7500   -1.2990    0.0000 C   0  0  0  0  0  0  0  0  0  0  0  0
   -1.5000    0.0000    0.0000 C   0  0  0  0  0  0  0  0  0  0  0  0
   -0.7500    1.2990    0.0000 C   0  0  0  0  0  0  0  0  0  0  0  0
    0.7500    1.2990    0.0000 C   0  0  0  0  0  0  0  0  0  0  0  0
  1  2  1  0
  2  3  2  0
  3  4  1  0
  4  5  1  0
  5  6  1  0
  6  7  1  0
  7  2  1  0
M  END
>  <Title>  (623) 
idAAWAgen14

$$$$

     RDKit          2D

104105  0  0  0  0  0  0  0  0999 V2000
    6.5093   -4.2950    0.0000 C   0  0  0  0  0  0  0  0  0  0  0  0
    7.2982   -4.4097    0.0000 C   0  0  0  0  0  0  0  0  0  0  0  0
    7.1481   -5.9022    0.0000 C   0  0  0  0  0  0  0  0  0  0  0  0
    7.1306   -7.4021    0.0000 C   0  0  0  0  0  0  0  0  0  0  0  0
    7.2456   -8.8977    0.0000 C   0  0  0  0  0  0  0  0  0  0  0  0
    7.4924  -10.3772    0.0000 C   0  0  0  0  0  0  0  0  0  0  0  0
    7.8690  -11.8292    0.0000 C   0  0  0  0  0  0  0  0  0  0  0  0
    8.3724  -13.2422    0.0000 C   0  0  0  0  0  0  0  0  0  0  0  0
    8.9988  -14.6051    0.0000 C   0  0  0  0  0  0  0  0  0  0  0  0
    9.7431  -15.9074    0.0000 C   0  0  0  0  0  0  0  0  0  0  0  0
   10.5997  -17.1388    0.0000 C   0  0  0  0  0  0  0  0  0  0  0  0
   11.5617  -18.2897    0.0000 C   0  0  0  0  0  0  0  0  0  0  0  0
   12.6217  -19.3510    0.0000 C   0  0  0  0  0  0  0  0  0  0  0  0
   13.7713  -20.3146    0.0000 C   0  0  0  0  0  0  0  0  0  0  0  0
   15.0016  -21.1727    0.0000 C   0  0  0  0  0  0  0  0  0  0  0  0
   16.3029  -21.9188    0.0000 C   0  0  0  0  0  0  0  0  0  0  0  0
   17.6650  -22.5469    0.0000 C   0  0  0  0  0  0  0  0  0  0  0  0
   19.0774  -23.0522    0.0000 C   0  0  0  0  0  0  0  0  0  0  0  0
   20.5288  -23.4306    0.0000 C   0  0  0  0  0  0  0  0  0  0  0  0
   22.0081  -23.6794    0.0000 C   0  0  0  0  0  0  0  0  0  0  0  0
   23.5035  -23.7964    0.0000 C   0  0  0  0  0  0  0  0  0  0  0  0
   25.0034  -23.7807    0.0000 C   0  0  0  0  0  0  0  0  0  0  0  0
   26.4961  -23.6326    0.0000 C   0  0  0  0  0  0  0  0  0  0  0  0
   27.9698  -23.3532    0.0000 C   0  0  0  0  0  0  0  0  0  0  0  0
   29.4131  -22.9445    0.0000 C   0  0  0  0  0  0  0  0  0  0  0  0
   30.8146  -22.4100    0.0000 C   0  0  0  0  0  0  0  0  0  0  0  0
   32.1634  -21.7536    0.0000 C   0  0  0  0  0  0  0  0  0  0  0  0
   33.4489  -20.9806    0.0000 C   0  0  0  0  0  0  0  0  0  0  0  0
   34.6610  -20.0971    0.0000 C   0  0  0  0  0  0  0  0  0  0  0  0
   35.7904  -19.1098    0.0000 C   0  0  0  0  0  0  0  0  0  0  0  0
   36.8280  -18.0266    0.0000 C   0  0  0  0  0  0  0  0  0  0  0  0
   37.7658  -16.8560    0.0000 C   0  0  0  0  0  0  0  0  0  0  0  0
   38.5966  -15.6070    0.0000 C   0  0  0  0  0  0  0  0  0  0  0  0
   39.3136  -14.2895    0.0000 C   0  0  0  0  0  0  0  0  0  0  0  0
   39.9115  -12.9138    0.0000 C   0  0  0  0  0  0  0  0  0  0  0  0
   40.3854  -11.4906    0.0000 C   0  0  0  0  0  0  0  0  0  0  0  0
   40.7317  -10.0311    0.0000 C   0  0  0  0  0  0  0  0  0  0  0  0
   40.9476   -8.5468    0.0000 C   0  0  0  0  0  0  0  0  0  0  0  0
   41.0315   -7.0491    0.0000 C   0  0  0  0  0  0  0  0  0  0  0  0
   40.9827   -5.5499    0.0000 C   0  0  0  0  0  0  0  0  0  0  0  0
   40.8016   -4.0609    0.0000 C   0  0  0  0  0  0  0  0  0  0  0  0
   40.4896   -2.5937    0.0000 C   0  0  0  0  0  0  0  0  0  0  0  0
   40.0492   -1.1598    0.0000 C   0  0  0  0  0  0  0  0  0  0  0  0
   39.4837    0.2295    0.0000 C   0  0  0  0  0  0  0  0  0  0  0  0
   38.7977    1.5635    0.0000 C   0  0  0  0  0  0  0  0  0  0  0  0
   37.9964    2.8315    0.0000 C   0  0  0  0  0  0  0  0  0  0  0  0
   37.0863    4.0238    0.0000 C   0  0  0  0  0  0  0  0  0  0  0  0
   36.0743    5.1310    0.0000 C   0  0  0  0  0  0  0  0  0  0  0  0
   34.9684    6.1445    0.0000 C   0  0  0  0  0  0  0  0  0  0  0  0
   33.7773    7.0562    0.0000 C   0  0  0  0  0  0  0  0  0  0  0  0
   32.5103    7.8591    0.0000 C   0  0  0  0  0  0  0  0  0  0  0  0
   31.1772    8.5468    0.0000 C   0  0  0  0  0  0  0  0  0  0  0  0
   29.7886    9.1141    0.0000 C   0  0  0  0  0  0  0  0  0  0  0  0
   28.3553    9.5564    0.0000 C   0  0  0  0  0  0  0  0  0  0  0  0
   26.8885    9.8703    0.0000 C   0  0  0  0  0  0  0  0  0  0  0  0
   25.3997   10.0533    0.0000 C   0  0  0  0  0  0  0  0  0  0  0  0
   23.9006   10.1041    0.0000 C   0  0  0  0  0  0  0  0  0  0  0  0
   22.4028   10.0221    0.0000 C   0  0  0  0  0  0  0  0  0  0  0  0
   20.9182    9.8081    0.0000 C   0  0  0  0  0  0  0  0  0  0  0  0
   19.4582    9.4638    0.0000 C   0  0  0  0  0  0  0  0  0  0  0  0
   18.0345    8.9917    0.0000 C   0  0  0  0  0  0  0  0  0  0  0  0
   16.6580    8.3957    0.0000 C   0  0  0  0  0  0  0  0  0  0  0  0
   15.3395    7.6803    0.0000 C   0  0  0  0  0  0  0  0  0  0  0  0
   14.0895    6.8512    0.0000 C   0  0  0  0  0  0  0  0  0  0  0  0
   12.9176    5.9149    0.0000 C   0  0  0  0  0  0  0  0  0  0  0  0
   11.8331    4.8786    0.0000 C   0  0  0  0  0  0  0  0  0  0  0  0
   10.8444    3.7506    0.0000 C   0  0  0  0  0  0  0  0  0  0  0  0
    9.9592    2.5396    0.0000 C   0  0  0  0  0  0  0  0  0  0  0  0
    9.1846    1.2551    0.0000 C   0  0  0  0  0  0  0  0  0  0  0  0
    8.5265   -0.0928    0.0000 C   0  0  0  0  0  0  0  0  0  0  0  0
    7.9901   -1.4936    0.0000 C   0  0  0  0  0  0  0  0  0  0  0  0
    7.4285    0.0000    0.0000 C   0  0  0  0  0  0  0  0  0  0  0  0
    7.3020    1.3650    0.0000 C   0  0  0  0  0  0  0  0  0  0  0  0
    6.9268    2.6835    0.0000 C   0  0  0  0  0  0  0  0  0  0  0  0
    6.3158    3.9106    0.0000 C   0  0  0  0  0  0  0  0  0  0  0  0
    5.4897    5.0045    0.0000 C   0  0  0  0  0  0  0  0  0  0  0  0
    4.4766    5.9280    0.0000 C   0  0  0  0  0  0  0  0  0  0  0  0
    3.3112    6.6497    0.0000 C   0  0  0  0  0  0  0  0  0  0  0  0
    2.0329    7.1449    0.0000 C   0  0  0  0  0  0  0  0  0  0  0  0
    0.6854    7.3968    0.0000 C   0  0  0  0  0  0  0  0  0  0  0  0
   -0.6854    7.3968    0.0000 C   0  0  0  0  0  0  0  0  0  0  0  0
   -2.0329    7.1449    0.0000 C   0  0  0  0  0  0  0  0  0  0  0  0
   -3.3112    6.6497    0.0000 C   0  0  0  0  0  0  0  0  0  0  0  0
   -4.4766    5.9280    0.0000 C   0  0  0  0  0  0  0  0  0  0  0  0
   -5.4897    5.0045    0.0000 C   0  0  0  0  0  0  0  0  0  0  0  0
   -6.3158    3.9106    0.0000 C   0  0  0  0  0  0  0  0  0  0  0  0
   -6.9268    2.6835    0.0000 C   0  0  0  0  0  0  0  0  0  0  0  0
   -7.3020    1.3650    0.0000 C   0  0  0  0  0  0  0  0  0  0  0  0
   -7.4285    0.0000    0.0000 C   0  0  0  0  0  0  0  0  0  0  0  0
   -7.3020   -1.3650    0.0000 C   0  0  0  0  0  0  0  0  0  0  0  0
   -6.9268   -2.6835    0.0000 C   0  0  0  0  0  0  0  0  0  0  0  0
   -6.3158   -3.9106    0.0000 C   0  0  0  0  0  0  0  0  0  0  0  0
   -5.4897   -5.0045    0.0000 C   0  0  0  0  0  0  0  0  0  0  0  0
   -4.4766   -5.9280    0.0000 C   0  0  0  0  0  0  0  0  0  0  0  0
   -3.3112   -6.6497    0.0000 C   0  0  0  0  0  0  0  0  0  0  0  0
   -2.0329   -7.1449    0.0000 C   0  0  0  0  0  0  0  0  0  0  0  0
   -0.6854   -7.3968    0.0000 C   0  0  0  0  0  0  0  0  0  0  0  0
    0.6854   -7.3968    0.0000 C   0  0  0  0  0  0  0  0  0  0  0  0
    2.0329   -7.1449    0.0000 C   0  0  0  0  0  0  0  0  0  0  0  0
    3.3112   -6.6497    0.0000 C   0  0  0  0  0  0  0  0  0  0  0  0
    4.4766   -5.9280    0.0000 C   0  0  0  0  0  0  0  0  0  0  0  0
    5.4897   -5.0045    0.0000 C   0  0  0  0  0  0  0  0  0  0  0  0
    6.3158   -3.9106    0.0000 C   0  0  0  0  0  0  0  0  0  0  0  0
    7.5796   -2.9363    0.0000 C   0  0  0  0  0  0  0  0  0  0  0  0
  1  2  1  0
  2  3  1  0
  3  4  1  0
  4  5  1  0
  5  6  1  0
  6  7  1  0
  7  8  1  0
  8  9  1  0
  9 10  1  0
 10 11  1  0
 11 12  1  0
 12 13  1  0
 13 14  1  0
 14 15  1  0
 15 16  1  0
 16 17  1  0
 17 18  1  0
 18 19  1  0
 19 20  1  0
 20 21  1  0
 21 22  1  0
 22 23  1  0
 23 24  1  0
 24 25  1  0
 25 26  1  0
 26 27  1  0
 27 28  1  0
 28 29  1  0
 29 30  1  0
 30 31  1  0
 31 32  1  0
 32 33  1  0
 33 34  1  0
 34 35  1  0
 35 36  1  0
 36 37  1  0
 37 38  1  0
 38 39  1  0
 39 40  1  0
 40 41  1  0
 41 42  1  0
 42 43  1  0
 43 44  1  0
 44 45  1  0
 45 46  1  0
 46 47  1  0
 47 48  1  0
 48 49  1  0
 49 50  1  0
 50 51  1  0
 51 52  1  0
 52 53  1  0
 53 54  1  0
 54 55  1  0
 55 56  1  0
 56 57  1  0
 57 58  1  0
 58 59  1  0
 59 60  1  0
 60 61  1  0
 61 62  1  0
 62 63  1  0
 63 64  1  0
 64 65  1  0
 65 66  1  0
 66 67  1  0
 67 68  1  0
 68 69  1  0
 69 70  1  0
 70 71  1  0
 71 72  1  0
 72 73  1  0
 73 74  1  0
 74 75  1  0
 75 76  2  0
 76 77  1  0
 77 78  2  0
 78 79  1  0
 79 80  2  0
 80 81  1  0
 81 82  2  0
 82 83  1  0
 83 84  2  0
 84 85  1  0
 85 86  2  0
 86 87  1  0
 87 88  2  0
 88 89  1  0
 89 90  2  0
 90 91  1  0
 91 92  2  0
 92 93  1  0
 93 94  2  0
 94 95  1  0
 95 96  2  0
 96 97  1  0
 97 98  2  0
 98 99  1  0
 99100  2  0
100101  1  0
101102  2  0
102103  1  0
103104  2  0
104  2  1  0
104 71  1  0
M  END
>  <Title>  (624) 
idAAWBgen14

$$$$

     RDKit          2D

 46 52  0  0  0  0  0  0  0  0999 V2000
    1.2135   -7.3421    0.0000 C   0  0  0  0  0  0  0  0  0  0  0  0
    0.7500   -5.9156    0.0000 C   0  0  0  0  0  0  0  0  0  0  0  0
    1.9635   -5.0339    0.0000 C   0  0  0  0  0  0  0  0  0  0  0  0
    2.4271   -3.6073    0.0000 C   0  0  0  0  0  0  0  0  0  0  0  0
    1.9635   -2.1807    0.0000 C   0  0  0  0  0  0  0  0  0  0  0  0
    3.1771   -1.2990    0.0000 C   0  0  0  0  0  0  0  0  0  0  0  0
    3.0203    0.1927    0.0000 O   0  0  0  0  0  0  0  0  0  0  0  0
    4.5474   -1.9091    0.0000 N   0  0  0  0  0  0  0  0  0  0  0  0
    5.7609   -1.0275    0.0000 C   0  0  0  0  0  0  0  0  0  0  0  0
    5.7609    0.4725    0.0000 N   0  0  0  0  0  0  0  0  0  0  0  0
    7.1875    0.9361    0.0000 N   0  0  0  0  0  0  0  0  0  0  0  0
    8.0692   -0.2775    0.0000 N   0  0  0  0  0  0  0  0  0  0  0  0
    7.1875   -1.4910    0.0000 N   0  0  0  0  0  0  0  0  0  0  0  0
    7.6510   -2.9176    0.0000 N   0  0  0  0  0  0  0  0  0  0  0  0
    9.0776   -3.3811    0.0000 C   0  0  0  0  0  0  0  0  0  0  0  0
    9.0776   -4.8811    0.0000 C   0  0  0  0  0  0  0  0  0  0  0  0
    7.6510   -5.3446    0.0000 N   0  0  0  0  0  0  0  0  0  0  0  0
    7.1875   -6.7712    0.0000 C   0  0  0  0  0  0  0  0  0  0  0  0
    8.1912   -7.8859    0.0000 O   0  0  0  0  0  0  0  0  0  0  0  0
    5.7203   -7.0831    0.0000 N   0  0  0  0  0  0  0  0  0  0  0  0
    5.2567   -8.5097    0.0000 C   0  0  0  0  0  0  0  0  0  0  0  0
    3.7895   -8.8215    0.0000 N   0  0  0  0  0  0  0  0  0  0  0  0
    3.3260  -10.2481    0.0000 N   0  0  0  0  0  0  0  0  0  0  0  0
    4.3297  -11.3628    0.0000 N   0  0  0  0  0  0  0  0  0  0  0  0
    5.7969  -11.0510    0.0000 N   0  0  0  0  0  0  0  0  0  0  0  0
    6.2604   -9.6244    0.0000 N   0  0  0  0  0  0  0  0  0  0  0  0
    6.7693   -4.1311    0.0000 C   0  0  0  0  0  0  0  0  0  0  0  0
    5.2693   -4.1311    0.0000 O   0  0  0  0  0  0  0  0  0  0  0  0
    0.7500   -1.2990    0.0000 C   0  0  0  0  0  0  0  0  0  0  0  0
    1.5000    0.0000    0.0000 C   0  0  0  0  0  0  0  0  0  0  0  0
    0.7500    1.2990    0.0000 C   0  0  0  0  0  0  0  0  0  0  0  0
   -0.7500    1.2990    0.0000 C   0  0  0  0  0  0  0  0  0  0  0  0
   -1.5000    0.0000    0.0000 C   0  0  0  0  0  0  0  0  0  0  0  0
   -0.7500   -1.2990    0.0000 C   0  0  0  0  0  0  0  0  0  0  0  0
   -1.9635   -2.1807    0.0000 C   0  0  0  0  0  0  0  0  0  0  0  0
   -2.9672   -1.0660    0.0000 C   0  0  0  0  0  0  0  0  0  0  0  0
   -4.4344   -1.3779    0.0000 C   0  0  0  0  0  0  0  0  0  0  0  0
   -4.8980   -2.8045    0.0000 C   0  0  0  0  0  0  0  0  0  0  0  0
   -3.8943   -3.9192    0.0000 C   0  0  0  0  0  0  0  0  0  0  0  0
   -2.4271   -3.6073    0.0000 C   0  0  0  0  0  0  0  0  0  0  0  0
   -1.9635   -5.0339    0.0000 C   0  0  0  0  0  0  0  0  0  0  0  0
   -3.3338   -5.6440    0.0000 C   0  0  0  0  0  0  0  0  0  0  0  0
   -3.4906   -7.1358    0.0000 C   0  0  0  0  0  0  0  0  0  0  0  0
   -2.2771   -8.0175    0.0000 C   0  0  0  0  0  0  0  0  0  0  0  0
   -0.9068   -7.4073    0.0000 C   0  0  0  0  0  0  0  0  0  0  0  0
   -0.7500   -5.9156    0.0000 C   0  0  0  0  0  0  0  0  0  0  0  0
  1  2  1  0
  2  3  2  0
  3  4  1  0
  4  5  2  0
  5  6  1  0
  6  7  2  0
  6  8  1  0
  8  9  1  0
  9 10  2  0
 10 11  1  0
 11 12  2  0
 12 13  1  0
 13 14  1  0
 14 15  1  0
 15 16  1  0
 16 17  1  0
 17 18  1  0
 18 19  2  0
 18 20  1  0
 20 21  1  0
 21 22  2  0
 22 23  1  0
 23 24  2  0
 24 25  1  0
 25 26  2  0
 17 27  1  0
 27 28  2  0
  5 29  1  0
 29 30  2  0
 30 31  1  0
 31 32  2  0
 32 33  1  0
 33 34  2  0
 34 35  1  0
 35 36  2  0
 36 37  1  0
 37 38  2  0
 38 39  1  0
 39 40  2  0
 40 41  1  0
 41 42  2  0
 42 43  1  0
 43 44  2  0
 44 45  1  0
 45 46  2  0
 46  2  1  0
 13  9  1  0
 27 14  1  0
 34 29  1  0
 40 35  1  0
 46 41  1  0
 26 21  1  0
M  END
>  <Title>  (625) 
idAAWCgen14

$$$$

     RDKit          2D

 32 35  0  0  0  0  0  0  0  0999 V2000
   -5.7723   -2.1248    0.0000 C   0  0  0  0  0  0  0  0  0  0  0  0
   -4.3865   -2.6988    0.0000 C   0  0  0  0  0  0  0  0  0  0  0  0
   -4.1907   -4.1860    0.0000 O   0  0  0  0  0  0  0  0  0  0  0  0
   -3.1965   -1.7857    0.0000 N   0  0  0  0  0  0  0  0  0  0  0  0
   -1.8107   -2.3597    0.0000 C   0  0  0  0  0  0  0  0  0  0  0  0
   -1.8107   -3.8597    0.0000 C   0  0  0  0  0  0  0  0  0  0  0  0
   -0.7500   -4.9204    0.0000 S   0  0  0  0  0  0  0  0  0  0  0  0
    0.7500   -4.9204    0.0000 N   0  0  0  0  0  0  0  0  0  0  0  0
    1.8107   -3.8597    0.0000 O   0  0  0  0  0  0  0  0  0  0  0  0
    1.8107   -2.3597    0.0000 C   0  0  0  0  0  0  0  0  0  0  0  0
    3.1965   -1.7857    0.0000 C   0  0  0  0  0  0  0  0  0  0  0  0
    3.5466   -0.3271    0.0000 C   0  0  0  0  0  0  0  0  0  0  0  0
    5.0420   -0.2094    0.0000 C   0  0  0  0  0  0  0  0  0  0  0  0
    5.6160   -1.5952    0.0000 C   0  0  0  0  0  0  0  0  0  0  0  0
    7.0746   -1.9454    0.0000 O   0  0  0  0  0  0  0  0  0  0  0  0
    7.5006   -3.3836    0.0000 C   0  0  0  0  0  0  0  0  0  0  0  0
    6.4681   -4.4717    0.0000 O   0  0  0  0  0  0  0  0  0  0  0  0
    8.9592   -3.7338    0.0000 N   0  0  0  0  0  0  0  0  0  0  0  0
    9.3852   -5.1720    0.0000 C   0  0  0  0  0  0  0  0  0  0  0  0
    8.3527   -6.2601    0.0000 N   0  0  0  0  0  0  0  0  0  0  0  0
    8.7787   -7.6983    0.0000 N   0  0  0  0  0  0  0  0  0  0  0  0
   10.2373   -8.0485    0.0000 N   0  0  0  0  0  0  0  0  0  0  0  0
   11.2698   -6.9604    0.0000 N   0  0  0  0  0  0  0  0  0  0  0  0
   10.8438   -5.5222    0.0000 N   0  0  0  0  0  0  0  0  0  0  0  0
    4.4754   -2.5694    0.0000 C   0  0  0  0  0  0  0  0  0  0  0  0
    4.5931   -4.0648    0.0000 O   0  0  0  0  0  0  0  0  0  0  0  0
    0.7500   -1.2990    0.0000 C   0  0  0  0  0  0  0  0  0  0  0  0
    1.5000    0.0000    0.0000 C   0  0  0  0  0  0  0  0  0  0  0  0
    0.7500    1.2990    0.0000 C   0  0  0  0  0  0  0  0  0  0  0  0
   -0.7500    1.2990    0.0000 C   0  0  0  0  0  0  0  0  0  0  0  0
   -1.5000    0.0000    0.0000 C   0  0  0  0  0  0  0  0  0  0  0  0
   -0.7500   -1.2990    0.0000 C   0  0  0  0  0  0  0  0  0  0  0  0
  1  2  1  0
  2  3  2  0
  2  4  1  0
  4  5  1  0
  5  6  2  0
  6  7  1  0
  7  8  1  0
  8  9  1  0
  9 10  1  0
 10 11  1  0
 11 12  2  0
 12 13  1  0
 13 14  2  0
 14 15  1  0
 15 16  1  0
 16 17  2  0
 16 18  1  0
 18 19  1  0
 19 20  2  0
 20 21  1  0
 21 22  2  0
 22 23  1  0
 23 24  2  0
 14 25  1  0
 25 26  2  0
 10 27  1  0
 27 28  2  0
 28 29  1  0
 29 30  2  0
 30 31  1  0
 31 32  2  0
 32  5  1  0
 25 11  1  0
 32 27  1  0
 24 19  1  0
M  END
>  <Title>  (626) 
idAAWDgen14

$$$$

     RDKit          2D

  7  6  0  0  0  0  0  0  0  0999 V2000
    0.0000    0.0000    0.0000 C   0  0  0  0  0  0  0  0  0  0  0  0
    1.2990    0.7500    0.0000 C   0  0  0  0  0  0  0  0  0  0  0  0
    1.2990    2.2500    0.0000 O   0  0  0  0  0  0  0  0  0  0  0  0
    2.5981   -0.0000    0.0000 N   0  0  0  0  0  0  0  0  0  0  0  0
    3.8971    0.7500    0.0000 C   0  0  0  0  0  0  0  0  0  0  0  0
    5.1962   -0.0000    0.0000 C   0  0  0  0  0  0  0  0  0  0  0  0
    3.8971    2.2500    0.0000 C   0  0  0  0  0  0  0  0  0  0  0  0
  1  2  1  0
  2  3  2  0
  2  4  1  0
  4  5  1  0
  5  6  1  0
  5  7  1  0
M  END
>  <Title>  (627) 
idAAWEgen14

$$$$

     RDKit          2D

 34 38  0  0  0  0  0  0  0  0999 V2000
   -3.0000   -2.5981    0.0000 C   0  0  0  0  0  0  0  0  0  0  0  0
   -1.5000   -2.5981    0.0000 C   0  0  0  0  0  0  0  0  0  0  0  0
   -0.7500   -3.8971    0.0000 C   0  0  0  0  0  0  0  0  0  0  0  0
    0.7500   -3.8971    0.0000 N   0  0  0  0  0  0  0  0  0  0  0  0
    1.5000   -2.5981    0.0000 C   0  0  0  0  0  0  0  0  0  0  0  0
    3.0000   -2.5981    0.0000 C   0  0  0  0  0  0  0  0  0  0  0  0
    3.7500   -1.2990    0.0000 O   0  0  0  0  0  0  0  0  0  0  0  0
    3.7500   -3.8971    0.0000 N   0  0  0  0  0  0  0  0  0  0  0  0
    5.2500   -3.8971    0.0000 C   0  0  0  0  0  0  0  0  0  0  0  0
    6.1317   -2.6836    0.0000 N   0  0  0  0  0  0  0  0  0  0  0  0
    7.5583   -3.1471    0.0000 N   0  0  0  0  0  0  0  0  0  0  0  0
    7.5583   -4.6471    0.0000 N   0  0  0  0  0  0  0  0  0  0  0  0
    6.1317   -5.1106    0.0000 N   0  0  0  0  0  0  0  0  0  0  0  0
    5.6682   -6.5372    0.0000 N   0  0  0  0  0  0  0  0  0  0  0  0
    6.5498   -7.7508    0.0000 C   0  0  0  0  0  0  0  0  0  0  0  0
    5.6682   -8.9643    0.0000 C   0  0  0  0  0  0  0  0  0  0  0  0
    4.2416   -8.5008    0.0000 N   0  0  0  0  0  0  0  0  0  0  0  0
    3.0280   -9.3824    0.0000 C   0  0  0  0  0  0  0  0  0  0  0  0
    3.1848  -10.8742    0.0000 O   0  0  0  0  0  0  0  0  0  0  0  0
    1.6577   -8.7723    0.0000 N   0  0  0  0  0  0  0  0  0  0  0  0
    0.4442   -9.6540    0.0000 C   0  0  0  0  0  0  0  0  0  0  0  0
   -0.9261   -9.0439    0.0000 N   0  0  0  0  0  0  0  0  0  0  0  0
   -2.1396   -9.9256    0.0000 N   0  0  0  0  0  0  0  0  0  0  0  0
   -1.9829  -11.4174    0.0000 N   0  0  0  0  0  0  0  0  0  0  0  0
   -0.6125  -12.0275    0.0000 N   0  0  0  0  0  0  0  0  0  0  0  0
    0.6010  -11.1458    0.0000 N   0  0  0  0  0  0  0  0  0  0  0  0
    4.2416   -7.0008    0.0000 C   0  0  0  0  0  0  0  0  0  0  0  0
    3.0280   -6.1191    0.0000 O   0  0  0  0  0  0  0  0  0  0  0  0
    0.7500   -1.2990    0.0000 C   0  0  0  0  0  0  0  0  0  0  0  0
    1.5000    0.0000    0.0000 C   0  0  0  0  0  0  0  0  0  0  0  0
    0.7500    1.2990    0.0000 C   0  0  0  0  0  0  0  0  0  0  0  0
   -0.7500    1.2990    0.0000 C   0  0  0  0  0  0  0  0  0  0  0  0
   -1.5000    0.0000    0.0000 C   0  0  0  0  0  0  0  0  0  0  0  0
   -0.7500   -1.2990    0.0000 C   0  0  0  0  0  0  0  0  0  0  0  0
  1  2  1  0
  2  3  1  0
  3  4  1  0
  4  5  1  0
  5  6  1  0
  6  7  2  0
  6  8  1  0
  8  9  1  0
  9 10  2  0
 10 11  1  0
 11 12  2  0
 12 13  1  0
 13 14  1  0
 14 15  1  0
 15 16  1  0
 16 17  1  0
 17 18  1  0
 18 19  2  0
 18 20  1  0
 20 21  1  0
 21 22  2  0
 22 23  1  0
 23 24  2  0
 24 25  1  0
 25 26  2  0
 17 27  1  0
 27 28  2  0
  5 29  1  0
 29 30  2  0
 30 31  1  0
 31 32  2  0
 32 33  1  0
 33 34  2  0
 34  2  1  0
 13  9  1  0
 27 14  1  0
 34 29  1  0
 26 21  1  0
M  END
>  <Title>  (628) 
idAAWFgen14

$$$$

     RDKit          2D

 35 39  0  0  0  0  0  0  0  0999 V2000
   -3.7258   -4.6709    0.0000 O   0  0  0  0  0  0  0  0  0  0  0  0
   -4.1679   -3.2376    0.0000 C   0  0  0  0  0  0  0  0  0  0  0  0
   -5.6303   -2.9038    0.0000 N   0  0  0  0  0  0  0  0  0  0  0  0
   -6.6505   -4.0034    0.0000 C   0  0  0  0  0  0  0  0  0  0  0  0
   -6.3607   -5.4751    0.0000 N   0  0  0  0  0  0  0  0  0  0  0  0
   -7.6708   -6.2056    0.0000 N   0  0  0  0  0  0  0  0  0  0  0  0
   -8.7703   -5.1853    0.0000 N   0  0  0  0  0  0  0  0  0  0  0  0
   -8.1398   -3.8243    0.0000 N   0  0  0  0  0  0  0  0  0  0  0  0
   -8.8703   -2.5142    0.0000 C   0  0  0  0  0  0  0  0  0  0  0  0
  -10.3596   -2.3351    0.0000 C   0  0  0  0  0  0  0  0  0  0  0  0
  -10.6494   -0.8634    0.0000 C   0  0  0  0  0  0  0  0  0  0  0  0
   -9.3393   -0.1329    0.0000 C   0  0  0  0  0  0  0  0  0  0  0  0
   -9.1602    1.3564    0.0000 C   0  0  0  0  0  0  0  0  0  0  0  0
  -10.3604    2.2561    0.0000 O   0  0  0  0  0  0  0  0  0  0  0  0
   -7.7809    1.9459    0.0000 N   0  0  0  0  0  0  0  0  0  0  0  0
   -7.6019    3.4352    0.0000 C   0  0  0  0  0  0  0  0  0  0  0  0
   -6.2226    4.0247    0.0000 N   0  0  0  0  0  0  0  0  0  0  0  0
   -6.0435    5.5140    0.0000 N   0  0  0  0  0  0  0  0  0  0  0  0
   -7.2437    6.4137    0.0000 N   0  0  0  0  0  0  0  0  0  0  0  0
   -8.6230    5.8242    0.0000 N   0  0  0  0  0  0  0  0  0  0  0  0
   -8.8021    4.3349    0.0000 N   0  0  0  0  0  0  0  0  0  0  0  0
   -8.2398   -1.1531    0.0000 C   0  0  0  0  0  0  0  0  0  0  0  0
   -6.7680   -0.8633    0.0000 O   0  0  0  0  0  0  0  0  0  0  0  0
   -3.1476   -2.1380    0.0000 O   0  0  0  0  0  0  0  0  0  0  0  0
   -1.6852   -2.4718    0.0000 C   0  0  0  0  0  0  0  0  0  0  0  0
   -1.3515   -3.9342    0.0000 C   0  0  0  0  0  0  0  0  0  0  0  0
   -0.0000   -4.5850    0.0000 C   0  0  0  0  0  0  0  0  0  0  0  0
    1.3515   -3.9342    0.0000 C   0  0  0  0  0  0  0  0  0  0  0  0
    1.6852   -2.4718    0.0000 C   0  0  0  0  0  0  0  0  0  0  0  0
    0.7500   -1.2990    0.0000 C   0  0  0  0  0  0  0  0  0  0  0  0
    1.5000    0.0000    0.0000 C   0  0  0  0  0  0  0  0  0  0  0  0
    0.7500    1.2990    0.0000 C   0  0  0  0  0  0  0  0  0  0  0  0
   -0.7500    1.2990    0.0000 C   0  0  0  0  0  0  0  0  0  0  0  0
   -1.5000    0.0000    0.0000 C   0  0  0  0  0  0  0  0  0  0  0  0
   -0.7500   -1.2990    0.0000 C   0  0  0  0  0  0  0  0  0  0  0  0
  1  2  2  0
  2  3  1  0
  3  4  1  0
  4  5  2  0
  5  6  1  0
  6  7  2  0
  7  8  1  0
  8  9  1  0
  9 10  2  0
 10 11  1  0
 11 12  2  0
 12 13  1  0
 13 14  2  0
 13 15  1  0
 15 16  1  0
 16 17  2  0
 17 18  1  0
 18 19  2  0
 19 20  1  0
 20 21  2  0
 12 22  1  0
 22 23  2  0
  2 24  1  0
 24 25  1  0
 25 26  1  0
 26 27  1  0
 27 28  1  0
 28 29  2  0
 29 30  1  0
 30 31  2  0
 31 32  1  0
 32 33  2  0
 33 34  1  0
 34 35  2  0
  8  4  1  0
 22  9  1  0
 35 25  1  0
 21 16  1  0
 35 30  1  0
M  END
>  <Title>  (629) 
idAAWGgen14

$$$$

     RDKit          2D

 15 16  0  0  0  0  0  0  0  0999 V2000
   -1.4352   -5.3724    0.0000 O   0  0  0  0  0  0  0  0  0  0  0  0
   -0.7844   -4.0210    0.0000 C   0  0  0  0  0  0  0  0  0  0  0  0
   -1.7196   -2.8482    0.0000 C   0  0  0  0  0  0  0  0  0  0  0  0
   -1.3858   -1.3858    0.0000 C   0  0  0  0  0  0  0  0  0  0  0  0
   -0.0000   -1.9598    0.0000 C   0  0  0  0  0  0  0  0  0  0  0  0
    1.3858   -1.3858    0.0000 C   0  0  0  0  0  0  0  0  0  0  0  0
    1.9598    0.0000    0.0000 C   0  0  0  0  0  0  0  0  0  0  0  0
    1.3858    1.3858    0.0000 C   0  0  0  0  0  0  0  0  0  0  0  0
    0.0000    1.9598    0.0000 C   0  0  0  0  0  0  0  0  0  0  0  0
    0.0000    3.4598    0.0000 O   0  0  0  0  0  0  0  0  0  0  0  0
   -1.3858    1.3858    0.0000 C   0  0  0  0  0  0  0  0  0  0  0  0
   -1.9598    0.0000    0.0000 C   0  0  0  0  0  0  0  0  0  0  0  0
    1.6509   -2.8482    0.0000 C   0  0  0  0  0  0  0  0  0  0  0  0
    3.1133   -3.1820    0.0000 O   0  0  0  0  0  0  0  0  0  0  0  0
    0.7156   -4.0210    0.0000 N   0  0  0  0  0  0  0  0  0  0  0  0
  1  2  2  0
  2  3  1  0
  3  4  1  0
  4  5  2  0
  5  6  1  0
  6  7  2  0
  7  8  1  0
  8  9  2  0
  9 10  1  0
  9 11  1  0
 11 12  2  0
  6 13  1  0
 13 14  2  0
 13 15  1  0
 15  2  1  0
 12  4  1  0
M  END
>  <Title>  (630) 
idAAWHgen14

$$$$

     RDKit          2D

 31 34  0  0  0  0  0  0  0  0999 V2000
   10.6772  -12.4041    0.0000 C   0  0  0  0  0  0  0  0  0  0  0  0
    9.1772  -12.4041    0.0000 C   0  0  0  0  0  0  0  0  0  0  0  0
    8.2955  -11.1906    0.0000 C   0  0  0  0  0  0  0  0  0  0  0  0
    6.8689  -11.6541    0.0000 C   0  0  0  0  0  0  0  0  0  0  0  0
    5.6554  -10.7725    0.0000 O   0  0  0  0  0  0  0  0  0  0  0  0
    4.2851  -11.3826    0.0000 C   0  0  0  0  0  0  0  0  0  0  0  0
    4.1283  -12.8743    0.0000 O   0  0  0  0  0  0  0  0  0  0  0  0
    3.0715  -10.5009    0.0000 N   0  0  0  0  0  0  0  0  0  0  0  0
    1.7012  -11.1110    0.0000 C   0  0  0  0  0  0  0  0  0  0  0  0
    1.3894  -12.5782    0.0000 N   0  0  0  0  0  0  0  0  0  0  0  0
   -0.1024  -12.7350    0.0000 N   0  0  0  0  0  0  0  0  0  0  0  0
   -0.7125  -11.3647    0.0000 N   0  0  0  0  0  0  0  0  0  0  0  0
    0.4022  -10.3610    0.0000 N   0  0  0  0  0  0  0  0  0  0  0  0
    0.2454   -8.8692    0.0000 C   0  0  0  0  0  0  0  0  0  0  0  0
   -1.0537   -8.1192    0.0000 C   0  0  0  0  0  0  0  0  0  0  0  0
   -0.7418   -6.6520    0.0000 C   0  0  0  0  0  0  0  0  0  0  0  0
    0.7500   -6.4952    0.0000 C   0  0  0  0  0  0  0  0  0  0  0  0
    1.5000   -5.1962    0.0000 O   0  0  0  0  0  0  0  0  0  0  0  0
    0.7500   -3.8971    0.0000 C   0  0  0  0  0  0  0  0  0  0  0  0
   -0.7500   -3.8971    0.0000 O   0  0  0  0  0  0  0  0  0  0  0  0
    1.5000   -2.5981    0.0000 N   0  0  0  0  0  0  0  0  0  0  0  0
    0.7500   -1.2990    0.0000 C   0  0  0  0  0  0  0  0  0  0  0  0
    1.5000    0.0000    0.0000 N   0  0  0  0  0  0  0  0  0  0  0  0
    0.7500    1.2990    0.0000 N   0  0  0  0  0  0  0  0  0  0  0  0
   -0.7500    1.2990    0.0000 N   0  0  0  0  0  0  0  0  0  0  0  0
   -1.5000    0.0000    0.0000 N   0  0  0  0  0  0  0  0  0  0  0  0
   -0.7500   -1.2990    0.0000 N   0  0  0  0  0  0  0  0  0  0  0  0
    1.3601   -7.8655    0.0000 C   0  0  0  0  0  0  0  0  0  0  0  0
    2.8273   -8.1774    0.0000 O   0  0  0  0  0  0  0  0  0  0  0  0
    6.8689  -13.1541    0.0000 C   0  0  0  0  0  0  0  0  0  0  0  0
    8.2955  -13.6177    0.0000 C   0  0  0  0  0  0  0  0  0  0  0  0
  1  2  1  0
  2  3  2  0
  3  4  1  0
  4  5  1  0
  5  6  1  0
  6  7  2  0
  6  8  1  0
  8  9  1  0
  9 10  2  0
 10 11  1  0
 11 12  2  0
 12 13  1  0
 13 14  1  0
 14 15  2  0
 15 16  1  0
 16 17  2  0
 17 18  1  0
 18 19  1  0
 19 20  2  0
 19 21  1  0
 21 22  1  0
 22 23  2  0
 23 24  1  0
 24 25  2  0
 25 26  1  0
 26 27  2  0
 17 28  1  0
 28 29  2  0
  4 30  1  0
 30 31  2  0
 31  2  1  0
 13  9  1  0
 28 14  1  0
 27 22  1  0
M  END
>  <Title>  (631) 
idAAWIgen14

$$$$

     RDKit          2D

 25 26  0  0  0  0  0  0  0  0999 V2000
    7.3978   -2.5981    0.0000 C   0  0  0  0  0  0  0  0  0  0  0  0
    6.6478   -1.2990    0.0000 C   0  0  0  0  0  0  0  0  0  0  0  0
    5.1478   -1.2990    0.0000 C   0  0  0  0  0  0  0  0  0  0  0  0
    4.3978    0.0000    0.0000 C   0  0  0  0  0  0  0  0  0  0  0  0
    2.8978    0.0000    0.0000 C   0  0  0  0  0  0  0  0  0  0  0  0
    2.5095   -1.4489    0.0000 C   0  0  0  0  0  0  0  0  0  0  0  0
    1.4489   -2.5095    0.0000 C   0  0  0  0  0  0  0  0  0  0  0  0
   -0.0000   -2.8978    0.0000 N   0  0  0  0  0  0  0  0  0  0  0  0
   -0.0000   -4.3978    0.0000 C   0  0  0  0  0  0  0  0  0  0  0  0
   -1.2990   -5.1478    0.0000 C   0  0  0  0  0  0  0  0  0  0  0  0
   -2.5981   -4.3978    0.0000 C   0  0  0  0  0  0  0  0  0  0  0  0
   -3.8971   -5.1478    0.0000 C   0  0  0  0  0  0  0  0  0  0  0  0
   -3.8971   -6.6478    0.0000 C   0  0  0  0  0  0  0  0  0  0  0  0
   -5.1962   -7.3978    0.0000 O   0  0  0  0  0  0  0  0  0  0  0  0
   -2.5981   -7.3978    0.0000 C   0  0  0  0  0  0  0  0  0  0  0  0
   -1.2990   -6.6478    0.0000 C   0  0  0  0  0  0  0  0  0  0  0  0
   -1.4489   -2.5095    0.0000 C   0  0  0  0  0  0  0  0  0  0  0  0
   -2.5095   -1.4489    0.0000 C   0  0  0  0  0  0  0  0  0  0  0  0
   -2.8978    0.0000    0.0000 C   0  0  0  0  0  0  0  0  0  0  0  0
   -2.5095    1.4489    0.0000 C   0  0  0  0  0  0  0  0  0  0  0  0
   -1.4489    2.5095    0.0000 C   0  0  0  0  0  0  0  0  0  0  0  0
    0.0000    2.8978    0.0000 C   0  0  0  0  0  0  0  0  0  0  0  0
    1.4489    2.5095    0.0000 C   0  0  0  0  0  0  0  0  0  0  0  0
    2.1989    3.8086    0.0000 O   0  0  0  0  0  0  0  0  0  0  0  0
    2.5095    1.4489    0.0000 N   0  0  0  0  0  0  0  0  0  0  0  0
  1  2  2  0
  2  3  1  0
  3  4  1  0
  4  5  1  0
  5  6  1  0
  6  7  2  0
  7  8  1  0
  8  9  1  0
  9 10  1  0
 10 11  2  0
 11 12  1  0
 12 13  2  0
 13 14  1  0
 13 15  1  0
 15 16  2  0
  8 17  1  0
 17 18  1  0
 18 19  2  0
 19 20  1  0
 20 21  2  0
 21 22  1  0
 22 23  1  0
 23 24  2  0
 23 25  1  0
 25  5  1  0
 16 10  1  0
M  END
>  <Title>  (632) 
idAAWJgen14

$$$$

     RDKit          2D

 11 11  0  0  0  0  0  0  0  0999 V2000
    6.0000   -2.5981    0.0000 C   0  0  0  0  0  0  0  0  0  0  0  0
    5.2500   -1.2990    0.0000 C   0  0  0  0  0  0  0  0  0  0  0  0
    3.7500   -1.2990    0.0000 C   0  0  0  0  0  0  0  0  0  0  0  0
    3.0000   -2.5981    0.0000 O   0  0  0  0  0  0  0  0  0  0  0  0
    3.0000    0.0000    0.0000 C   0  0  0  0  0  0  0  0  0  0  0  0
    1.5000    0.0000    0.0000 C   0  0  0  0  0  0  0  0  0  0  0  0
    0.7500   -1.2990    0.0000 C   0  0  0  0  0  0  0  0  0  0  0  0
   -0.7500   -1.2990    0.0000 C   0  0  0  0  0  0  0  0  0  0  0  0
   -1.5000    0.0000    0.0000 C   0  0  0  0  0  0  0  0  0  0  0  0
   -0.7500    1.2990    0.0000 C   0  0  0  0  0  0  0  0  0  0  0  0
    0.7500    1.2990    0.0000 C   0  0  0  0  0  0  0  0  0  0  0  0
  1  2  1  0
  2  3  1  0
  3  4  1  0
  3  5  1  0
  5  6  1  0
  6  7  2  0
  7  8  1  0
  8  9  1  0
  9 10  1  0
 10 11  2  0
 11  6  1  0
M  END
>  <Title>  (633) 
idAAWKgen14

$$$$

     RDKit          2D

 12 11  0  0  0  0  0  0  0  0999 V2000
    0.0000    0.0000    0.0000 C   0  0  0  0  0  0  0  0  0  0  0  0
    1.2990    0.7500    0.0000 C   0  0  0  0  0  0  0  0  0  0  0  0
    2.5981   -0.0000    0.0000 C   0  0  0  0  0  0  0  0  0  0  0  0
    3.8971    0.7500    0.0000 C   0  0  0  0  0  0  0  0  0  0  0  0
    5.1962   -0.0000    0.0000 C   0  0  0  0  0  0  0  0  0  0  0  0
    3.8971    2.2500    0.0000 C   0  0  0  0  0  0  0  0  0  0  0  0
    5.1962    3.0000    0.0000 C   0  0  0  0  0  0  0  0  0  0  0  0
    5.1962    4.5000    0.0000 C   0  0  0  0  0  0  0  0  0  0  0  0
    6.4952    5.2500    0.0000 C   0  0  0  0  0  0  0  0  0  0  0  0
    3.8971    5.2500    0.0000 C   0  0  0  0  0  0  0  0  0  0  0  0
    3.8971    6.7500    0.0000 C   0  0  0  0  0  0  0  0  0  0  0  0
    2.5981    7.5000    0.0000 C   0  0  0  0  0  0  0  0  0  0  0  0
  1  2  1  0
  2  3  1  0
  3  4  1  0
  4  5  1  0
  4  6  1  0
  6  7  1  0
  7  8  1  0
  8  9  1  0
  8 10  1  0
 10 11  1  0
 11 12  1  0
M  END
>  <Title>  (634) 
idAAWLgen14

$$$$

     RDKit          2D

 35 39  0  0  0  0  0  0  0  0999 V2000
   -3.1476   -2.1380    0.0000 C   0  0  0  0  0  0  0  0  0  0  0  0
   -1.6852   -2.4718    0.0000 C   0  0  0  0  0  0  0  0  0  0  0  0
   -1.3515   -3.9342    0.0000 C   0  0  0  0  0  0  0  0  0  0  0  0
   -0.0000   -4.5850    0.0000 C   0  0  0  0  0  0  0  0  0  0  0  0
    1.3515   -3.9342    0.0000 C   0  0  0  0  0  0  0  0  0  0  0  0
    1.6852   -2.4718    0.0000 C   0  0  0  0  0  0  0  0  0  0  0  0
    3.1476   -2.1380    0.0000 C   0  0  0  0  0  0  0  0  0  0  0  0
    3.5898   -0.7046    0.0000 O   0  0  0  0  0  0  0  0  0  0  0  0
    4.1679   -3.2376    0.0000 N   0  0  0  0  0  0  0  0  0  0  0  0
    5.6303   -2.9038    0.0000 C   0  0  0  0  0  0  0  0  0  0  0  0
    6.2198   -1.5245    0.0000 N   0  0  0  0  0  0  0  0  0  0  0  0
    7.7138   -1.6590    0.0000 N   0  0  0  0  0  0  0  0  0  0  0  0
    8.0476   -3.1214    0.0000 N   0  0  0  0  0  0  0  0  0  0  0  0
    6.7599   -3.8907    0.0000 N   0  0  0  0  0  0  0  0  0  0  0  0
    6.6254   -5.3847    0.0000 N   0  0  0  0  0  0  0  0  0  0  0  0
    7.7550   -6.3716    0.0000 C   0  0  0  0  0  0  0  0  0  0  0  0
    7.1655   -7.7509    0.0000 C   0  0  0  0  0  0  0  0  0  0  0  0
    5.6715   -7.6164    0.0000 N   0  0  0  0  0  0  0  0  0  0  0  0
    4.6846   -8.7460    0.0000 C   0  0  0  0  0  0  0  0  0  0  0  0
    5.1694  -10.1655    0.0000 O   0  0  0  0  0  0  0  0  0  0  0  0
    3.2129   -8.4561    0.0000 N   0  0  0  0  0  0  0  0  0  0  0  0
    2.2260   -9.5857    0.0000 C   0  0  0  0  0  0  0  0  0  0  0  0
    0.7543   -9.2959    0.0000 N   0  0  0  0  0  0  0  0  0  0  0  0
   -0.2326  -10.4255    0.0000 N   0  0  0  0  0  0  0  0  0  0  0  0
    0.2522  -11.8450    0.0000 N   0  0  0  0  0  0  0  0  0  0  0  0
    1.7239  -12.1348    0.0000 N   0  0  0  0  0  0  0  0  0  0  0  0
    2.7108  -11.0052    0.0000 N   0  0  0  0  0  0  0  0  0  0  0  0
    5.3378   -6.1540    0.0000 C   0  0  0  0  0  0  0  0  0  0  0  0
    3.9585   -5.5645    0.0000 O   0  0  0  0  0  0  0  0  0  0  0  0
    0.7500   -1.2990    0.0000 C   0  0  0  0  0  0  0  0  0  0  0  0
    1.5000    0.0000    0.0000 C   0  0  0  0  0  0  0  0  0  0  0  0
    0.7500    1.2990    0.0000 C   0  0  0  0  0  0  0  0  0  0  0  0
   -0.7500    1.2990    0.0000 C   0  0  0  0  0  0  0  0  0  0  0  0
   -1.5000    0.0000    0.0000 C   0  0  0  0  0  0  0  0  0  0  0  0
   -0.7500   -1.2990    0.0000 C   0  0  0  0  0  0  0  0  0  0  0  0
  1  2  1  0
  2  3  2  0
  3  4  1  0
  4  5  1  0
  5  6  1  0
  6  7  1  0
  7  8  2  0
  7  9  1  0
  9 10  1  0
 10 11  2  0
 11 12  1  0
 12 13  2  0
 13 14  1  0
 14 15  1  0
 15 16  1  0
 16 17  1  0
 17 18  1  0
 18 19  1  0
 19 20  2  0
 19 21  1  0
 21 22  1  0
 22 23  2  0
 23 24  1  0
 24 25  2  0
 25 26  1  0
 26 27  2  0
 18 28  1  0
 28 29  2  0
  6 30  1  0
 30 31  2  0
 31 32  1  0
 32 33  2  0
 33 34  1  0
 34 35  2  0
 35  2  1  0
 14 10  1  0
 28 15  1  0
 35 30  1  0
 27 22  1  0
M  END
>  <Title>  (635) 
idAAWMgen14

$$$$

     RDKit          2D

 12 13  0  0  0  0  0  0  0  0999 V2000
    4.6740   -4.8322    0.0000 C   0  0  0  0  0  0  0  0  0  0  0  0
    3.3037   -4.2221    0.0000 C   0  0  0  0  0  0  0  0  0  0  0  0
    2.9918   -2.7549    0.0000 N   0  0  0  0  0  0  0  0  0  0  0  0
    1.5000   -2.5981    0.0000 C   0  0  0  0  0  0  0  0  0  0  0  0
    0.7500   -1.2990    0.0000 N   0  0  0  0  0  0  0  0  0  0  0  0
    1.5000    0.0000    0.0000 C   0  0  0  0  0  0  0  0  0  0  0  0
    0.7500    1.2990    0.0000 C   0  0  0  0  0  0  0  0  0  0  0  0
   -0.7500    1.2990    0.0000 N   0  0  0  0  0  0  0  0  0  0  0  0
   -1.5000    0.0000    0.0000 N   0  0  0  0  0  0  0  0  0  0  0  0
   -0.7500   -1.2990    0.0000 N   0  0  0  0  0  0  0  0  0  0  0  0
    0.8899   -3.9684    0.0000 C   0  0  0  0  0  0  0  0  0  0  0  0
    2.0046   -4.9721    0.0000 C   0  0  0  0  0  0  0  0  0  0  0  0
  1  2  1  0
  2  3  2  0
  3  4  1  0
  4  5  1  0
  5  6  1  0
  6  7  1  0
  7  8  2  0
  8  9  1  0
  9 10  2  0
  4 11  1  0
 11 12  2  0
 12  2  1  0
 10  5  1  0
M  END
>  <Title>  (636) 
idAAWNgen14

$$$$

     RDKit          2D

 34 38  0  0  0  0  0  0  0  0999 V2000
   -2.6401   -3.1891    0.0000 C   0  0  0  0  0  0  0  0  0  0  0  0
   -1.2135   -2.7256    0.0000 C   0  0  0  0  0  0  0  0  0  0  0  0
   -0.0000   -3.6073    0.0000 C   0  0  0  0  0  0  0  0  0  0  0  0
    1.2135   -2.7256    0.0000 C   0  0  0  0  0  0  0  0  0  0  0  0
    2.6401   -3.1891    0.0000 C   0  0  0  0  0  0  0  0  0  0  0  0
    3.7548   -2.1855    0.0000 O   0  0  0  0  0  0  0  0  0  0  0  0
    2.9520   -4.6564    0.0000 N   0  0  0  0  0  0  0  0  0  0  0  0
    4.3786   -5.1199    0.0000 C   0  0  0  0  0  0  0  0  0  0  0  0
    5.5921   -4.2382    0.0000 N   0  0  0  0  0  0  0  0  0  0  0  0
    6.8056   -5.1199    0.0000 N   0  0  0  0  0  0  0  0  0  0  0  0
    6.3421   -6.5465    0.0000 N   0  0  0  0  0  0  0  0  0  0  0  0
    4.8421   -6.5465    0.0000 N   0  0  0  0  0  0  0  0  0  0  0  0
    3.9604   -7.7600    0.0000 C   0  0  0  0  0  0  0  0  0  0  0  0
    4.4239   -9.1866    0.0000 C   0  0  0  0  0  0  0  0  0  0  0  0
    3.2104  -10.0683    0.0000 C   0  0  0  0  0  0  0  0  0  0  0  0
    1.9969   -9.1866    0.0000 C   0  0  0  0  0  0  0  0  0  0  0  0
    0.5703   -9.6501    0.0000 N   0  0  0  0  0  0  0  0  0  0  0  0
   -0.5444   -8.6464    0.0000 C   0  0  0  0  0  0  0  0  0  0  0  0
   -0.2325   -7.1792    0.0000 O   0  0  0  0  0  0  0  0  0  0  0  0
   -1.9710   -9.1099    0.0000 N   0  0  0  0  0  0  0  0  0  0  0  0
   -3.0857   -8.1062    0.0000 C   0  0  0  0  0  0  0  0  0  0  0  0
   -2.7739   -6.6390    0.0000 N   0  0  0  0  0  0  0  0  0  0  0  0
   -3.8886   -5.6353    0.0000 N   0  0  0  0  0  0  0  0  0  0  0  0
   -5.3152   -6.0989    0.0000 N   0  0  0  0  0  0  0  0  0  0  0  0
   -5.6270   -7.5661    0.0000 N   0  0  0  0  0  0  0  0  0  0  0  0
   -4.5123   -8.5698    0.0000 N   0  0  0  0  0  0  0  0  0  0  0  0
    2.4604   -7.7600    0.0000 C   0  0  0  0  0  0  0  0  0  0  0  0
    1.5787   -6.5465    0.0000 O   0  0  0  0  0  0  0  0  0  0  0  0
    0.7500   -1.2990    0.0000 C   0  0  0  0  0  0  0  0  0  0  0  0
    1.5000    0.0000    0.0000 C   0  0  0  0  0  0  0  0  0  0  0  0
    0.7500    1.2990    0.0000 C   0  0  0  0  0  0  0  0  0  0  0  0
   -0.7500    1.2990    0.0000 C   0  0  0  0  0  0  0  0  0  0  0  0
   -1.5000    0.0000    0.0000 C   0  0  0  0  0  0  0  0  0  0  0  0
   -0.7500   -1.2990    0.0000 C   0  0  0  0  0  0  0  0  0  0  0  0
  1  2  1  0
  2  3  2  0
  3  4  1  0
  4  5  1  0
  5  6  2  0
  5  7  1  0
  7  8  1  0
  8  9  2  0
  9 10  1  0
 10 11  2  0
 11 12  1  0
 12 13  1  0
 13 14  2  0
 14 15  1  0
 15 16  2  0
 16 17  1  0
 17 18  1  0
 18 19  2  0
 18 20  1  0
 20 21  1  0
 21 22  2  0
 22 23  1  0
 23 24  2  0
 24 25  1  0
 25 26  2  0
 16 27  1  0
 27 28  2  0
  4 29  1  0
 29 30  2  0
 30 31  1  0
 31 32  2  0
 32 33  1  0
 33 34  2  0
 34  2  1  0
 12  8  1  0
 27 13  1  0
 34 29  1  0
 26 21  1  0
M  END
>  <Title>  (637) 
idAAWOgen14

$$$$

     RDKit          2D

 35 39  0  0  0  0  0  0  0  0999 V2000
   -3.0000   -2.5981    0.0000 C   0  0  0  0  0  0  0  0  0  0  0  0
   -1.5000   -2.5981    0.0000 C   0  0  0  0  0  0  0  0  0  0  0  0
   -0.7500   -3.8971    0.0000 C   0  0  0  0  0  0  0  0  0  0  0  0
    0.7500   -3.8971    0.0000 C   0  0  0  0  0  0  0  0  0  0  0  0
    1.5000   -2.5981    0.0000 C   0  0  0  0  0  0  0  0  0  0  0  0
    3.0000   -2.5981    0.0000 C   0  0  0  0  0  0  0  0  0  0  0  0
    3.7500   -1.2990    0.0000 O   0  0  0  0  0  0  0  0  0  0  0  0
    3.7500   -3.8971    0.0000 N   0  0  0  0  0  0  0  0  0  0  0  0
    5.2500   -3.8971    0.0000 C   0  0  0  0  0  0  0  0  0  0  0  0
    6.1317   -2.6836    0.0000 N   0  0  0  0  0  0  0  0  0  0  0  0
    7.5583   -3.1471    0.0000 N   0  0  0  0  0  0  0  0  0  0  0  0
    7.5583   -4.6471    0.0000 N   0  0  0  0  0  0  0  0  0  0  0  0
    6.1317   -5.1106    0.0000 N   0  0  0  0  0  0  0  0  0  0  0  0
    5.6682   -6.5372    0.0000 C   0  0  0  0  0  0  0  0  0  0  0  0
    6.5498   -7.7508    0.0000 C   0  0  0  0  0  0  0  0  0  0  0  0
    5.6682   -8.9643    0.0000 C   0  0  0  0  0  0  0  0  0  0  0  0
    4.2416   -8.5008    0.0000 C   0  0  0  0  0  0  0  0  0  0  0  0
    3.0280   -9.3824    0.0000 O   0  0  0  0  0  0  0  0  0  0  0  0
    1.6577   -8.7723    0.0000 C   0  0  0  0  0  0  0  0  0  0  0  0
    1.5009   -7.2805    0.0000 O   0  0  0  0  0  0  0  0  0  0  0  0
    0.4442   -9.6540    0.0000 N   0  0  0  0  0  0  0  0  0  0  0  0
   -0.9261   -9.0439    0.0000 C   0  0  0  0  0  0  0  0  0  0  0  0
   -1.0829   -7.5521    0.0000 N   0  0  0  0  0  0  0  0  0  0  0  0
   -2.4532   -6.9420    0.0000 N   0  0  0  0  0  0  0  0  0  0  0  0
   -3.6668   -7.8237    0.0000 N   0  0  0  0  0  0  0  0  0  0  0  0
   -3.5100   -9.3155    0.0000 N   0  0  0  0  0  0  0  0  0  0  0  0
   -2.1396   -9.9256    0.0000 N   0  0  0  0  0  0  0  0  0  0  0  0
    4.2416   -7.0008    0.0000 C   0  0  0  0  0  0  0  0  0  0  0  0
    3.0280   -6.1191    0.0000 O   0  0  0  0  0  0  0  0  0  0  0  0
    0.7500   -1.2990    0.0000 C   0  0  0  0  0  0  0  0  0  0  0  0
    1.5000    0.0000    0.0000 C   0  0  0  0  0  0  0  0  0  0  0  0
    0.7500    1.2990    0.0000 C   0  0  0  0  0  0  0  0  0  0  0  0
   -0.7500    1.2990    0.0000 C   0  0  0  0  0  0  0  0  0  0  0  0
   -1.5000    0.0000    0.0000 C   0  0  0  0  0  0  0  0  0  0  0  0
   -0.7500   -1.2990    0.0000 C   0  0  0  0  0  0  0  0  0  0  0  0
  1  2  1  0
  2  3  2  0
  3  4  1  0
  4  5  1  0
  5  6  1  0
  6  7  2  0
  6  8  1  0
  8  9  1  0
  9 10  2  0
 10 11  1  0
 11 12  2  0
 12 13  1  0
 13 14  1  0
 14 15  2  0
 15 16  1  0
 16 17  2  0
 17 18  1  0
 18 19  1  0
 19 20  2  0
 19 21  1  0
 21 22  1  0
 22 23  2  0
 23 24  1  0
 24 25  2  0
 25 26  1  0
 26 27  2  0
 17 28  1  0
 28 29  2  0
  5 30  1  0
 30 31  2  0
 31 32  1  0
 32 33  2  0
 33 34  1  0
 34 35  2  0
 35  2  1  0
 13  9  1  0
 28 14  1  0
 35 30  1  0
 27 22  1  0
M  END
>  <Title>  (638) 
idAAWPgen14

$$$$

     RDKit          2D

 36 40  0  0  0  0  0  0  0  0999 V2000
   -3.1965   -1.7857    0.0000 C   0  0  0  0  0  0  0  0  0  0  0  0
   -1.8107   -2.3597    0.0000 C   0  0  0  0  0  0  0  0  0  0  0  0
   -1.8107   -3.8597    0.0000 C   0  0  0  0  0  0  0  0  0  0  0  0
   -0.7500   -4.9204    0.0000 C   0  0  0  0  0  0  0  0  0  0  0  0
    0.7500   -4.9204    0.0000 C   0  0  0  0  0  0  0  0  0  0  0  0
    1.8107   -3.8597    0.0000 C   0  0  0  0  0  0  0  0  0  0  0  0
    1.8107   -2.3597    0.0000 C   0  0  0  0  0  0  0  0  0  0  0  0
    3.1965   -1.7857    0.0000 C   0  0  0  0  0  0  0  0  0  0  0  0
    3.3923   -0.2985    0.0000 O   0  0  0  0  0  0  0  0  0  0  0  0
    4.3865   -2.6988    0.0000 N   0  0  0  0  0  0  0  0  0  0  0  0
    5.7723   -2.1248    0.0000 C   0  0  0  0  0  0  0  0  0  0  0  0
    6.1225   -0.6662    0.0000 N   0  0  0  0  0  0  0  0  0  0  0  0
    7.6179   -0.5485    0.0000 N   0  0  0  0  0  0  0  0  0  0  0  0
    8.1919   -1.9344    0.0000 N   0  0  0  0  0  0  0  0  0  0  0  0
    7.0513   -2.9085    0.0000 N   0  0  0  0  0  0  0  0  0  0  0  0
    7.1690   -4.4039    0.0000 N   0  0  0  0  0  0  0  0  0  0  0  0
    8.4479   -5.1877    0.0000 C   0  0  0  0  0  0  0  0  0  0  0  0
    8.0978   -6.6462    0.0000 C   0  0  0  0  0  0  0  0  0  0  0  0
    6.6024   -6.7639    0.0000 N   0  0  0  0  0  0  0  0  0  0  0  0
    5.8186   -8.0429    0.0000 C   0  0  0  0  0  0  0  0  0  0  0  0
    6.5344   -9.3611    0.0000 O   0  0  0  0  0  0  0  0  0  0  0  0
    4.3192   -8.0036    0.0000 N   0  0  0  0  0  0  0  0  0  0  0  0
    3.5354   -9.2826    0.0000 C   0  0  0  0  0  0  0  0  0  0  0  0
    2.0359   -9.2433    0.0000 N   0  0  0  0  0  0  0  0  0  0  0  0
    1.2522  -10.5223    0.0000 N   0  0  0  0  0  0  0  0  0  0  0  0
    1.9679  -11.8405    0.0000 N   0  0  0  0  0  0  0  0  0  0  0  0
    3.4674  -11.8797    0.0000 N   0  0  0  0  0  0  0  0  0  0  0  0
    4.2512  -10.6008    0.0000 N   0  0  0  0  0  0  0  0  0  0  0  0
    6.0284   -5.3781    0.0000 C   0  0  0  0  0  0  0  0  0  0  0  0
    4.5698   -5.0279    0.0000 O   0  0  0  0  0  0  0  0  0  0  0  0
    0.7500   -1.2990    0.0000 C   0  0  0  0  0  0  0  0  0  0  0  0
    1.5000    0.0000    0.0000 C   0  0  0  0  0  0  0  0  0  0  0  0
    0.7500    1.2990    0.0000 C   0  0  0  0  0  0  0  0  0  0  0  0
   -0.7500    1.2990    0.0000 C   0  0  0  0  0  0  0  0  0  0  0  0
   -1.5000    0.0000    0.0000 C   0  0  0  0  0  0  0  0  0  0  0  0
   -0.7500   -1.2990    0.0000 C   0  0  0  0  0  0  0  0  0  0  0  0
  1  2  1  0
  2  3  1  0
  3  4  2  0
  4  5  1  0
  5  6  1  0
  6  7  1  0
  7  8  1  0
  8  9  2  0
  8 10  1  0
 10 11  1  0
 11 12  2  0
 12 13  1  0
 13 14  2  0
 14 15  1  0
 15 16  1  0
 16 17  1  0
 17 18  1  0
 18 19  1  0
 19 20  1  0
 20 21  2  0
 20 22  1  0
 22 23  1  0
 23 24  2  0
 24 25  1  0
 25 26  2  0
 26 27  1  0
 27 28  2  0
 19 29  1  0
 29 30  2  0
  7 31  1  0
 31 32  2  0
 32 33  1  0
 33 34  2  0
 34 35  1  0
 35 36  2  0
 36  2  1  0
 15 11  1  0
 29 16  1  0
 36 31  1  0
 28 23  1  0
M  END
>  <Title>  (639) 
idAAWQgen14

$$$$

     RDKit          2D

 48 54  0  0  0  0  0  0  0  0999 V2000
   -1.1382   -8.3460    0.0000 C   0  0  0  0  0  0  0  0  0  0  0  0
   -0.7500   -6.8971    0.0000 C   0  0  0  0  0  0  0  0  0  0  0  0
    0.7500   -6.8971    0.0000 C   0  0  0  0  0  0  0  0  0  0  0  0
    2.0490   -6.1471    0.0000 C   0  0  0  0  0  0  0  0  0  0  0  0
    2.7990   -4.8481    0.0000 C   0  0  0  0  0  0  0  0  0  0  0  0
    2.7990   -3.3481    0.0000 C   0  0  0  0  0  0  0  0  0  0  0  0
    2.0490   -2.0490    0.0000 C   0  0  0  0  0  0  0  0  0  0  0  0
    3.1097   -0.9884    0.0000 C   0  0  0  0  0  0  0  0  0  0  0  0
    2.7215    0.4605    0.0000 O   0  0  0  0  0  0  0  0  0  0  0  0
    4.5586   -1.3766    0.0000 N   0  0  0  0  0  0  0  0  0  0  0  0
    5.6192   -0.3159    0.0000 C   0  0  0  0  0  0  0  0  0  0  0  0
    5.3846    1.1656    0.0000 N   0  0  0  0  0  0  0  0  0  0  0  0
    6.7211    1.8466    0.0000 N   0  0  0  0  0  0  0  0  0  0  0  0
    7.7818    0.7859    0.0000 N   0  0  0  0  0  0  0  0  0  0  0  0
    7.1008   -0.5506    0.0000 N   0  0  0  0  0  0  0  0  0  0  0  0
    7.7818   -1.8871    0.0000 N   0  0  0  0  0  0  0  0  0  0  0  0
    9.2633   -2.1218    0.0000 C   0  0  0  0  0  0  0  0  0  0  0  0
    9.4979   -3.6033    0.0000 C   0  0  0  0  0  0  0  0  0  0  0  0
    8.1614   -4.2843    0.0000 N   0  0  0  0  0  0  0  0  0  0  0  0
    7.9268   -5.7658    0.0000 C   0  0  0  0  0  0  0  0  0  0  0  0
    9.0925   -6.7098    0.0000 O   0  0  0  0  0  0  0  0  0  0  0  0
    6.5264   -6.3034    0.0000 N   0  0  0  0  0  0  0  0  0  0  0  0
    6.2918   -7.7849    0.0000 C   0  0  0  0  0  0  0  0  0  0  0  0
    4.8914   -8.3224    0.0000 N   0  0  0  0  0  0  0  0  0  0  0  0
    4.6567   -9.8040    0.0000 N   0  0  0  0  0  0  0  0  0  0  0  0
    5.8225  -10.7480    0.0000 N   0  0  0  0  0  0  0  0  0  0  0  0
    7.2228  -10.2104    0.0000 N   0  0  0  0  0  0  0  0  0  0  0  0
    7.4575   -8.7289    0.0000 N   0  0  0  0  0  0  0  0  0  0  0  0
    7.1008   -3.2236    0.0000 C   0  0  0  0  0  0  0  0  0  0  0  0
    5.6192   -3.4583    0.0000 O   0  0  0  0  0  0  0  0  0  0  0  0
    0.7500   -1.2990    0.0000 C   0  0  0  0  0  0  0  0  0  0  0  0
    1.5000    0.0000    0.0000 C   0  0  0  0  0  0  0  0  0  0  0  0
    0.7500    1.2990    0.0000 C   0  0  0  0  0  0  0  0  0  0  0  0
   -0.7500    1.2990    0.0000 C   0  0  0  0  0  0  0  0  0  0  0  0
   -1.5000    0.0000    0.0000 C   0  0  0  0  0  0  0  0  0  0  0  0
   -0.7500   -1.2990    0.0000 C   0  0  0  0  0  0  0  0  0  0  0  0
   -2.0490   -2.0490    0.0000 C   0  0  0  0  0  0  0  0  0  0  0  0
   -2.7990   -0.7500    0.0000 C   0  0  0  0  0  0  0  0  0  0  0  0
   -4.2990   -0.7500    0.0000 C   0  0  0  0  0  0  0  0  0  0  0  0
   -5.0490   -2.0490    0.0000 C   0  0  0  0  0  0  0  0  0  0  0  0
   -4.2990   -3.3481    0.0000 C   0  0  0  0  0  0  0  0  0  0  0  0
   -2.7990   -3.3481    0.0000 C   0  0  0  0  0  0  0  0  0  0  0  0
   -2.7990   -4.8481    0.0000 C   0  0  0  0  0  0  0  0  0  0  0  0
   -4.2990   -4.8481    0.0000 C   0  0  0  0  0  0  0  0  0  0  0  0
   -5.0490   -6.1471    0.0000 C   0  0  0  0  0  0  0  0  0  0  0  0
   -4.2990   -7.4462    0.0000 C   0  0  0  0  0  0  0  0  0  0  0  0
   -2.7990   -7.4462    0.0000 C   0  0  0  0  0  0  0  0  0  0  0  0
   -2.0490   -6.1471    0.0000 C   0  0  0  0  0  0  0  0  0  0  0  0
  1  2  1  0
  2  3  1  0
  3  4  2  0
  4  5  1  0
  5  6  1  0
  6  7  1  0
  7  8  1  0
  8  9  2  0
  8 10  1  0
 10 11  1  0
 11 12  2  0
 12 13  1  0
 13 14  2  0
 14 15  1  0
 15 16  1  0
 16 17  1  0
 17 18  1  0
 18 19  1  0
 19 20  1  0
 20 21  2  0
 20 22  1  0
 22 23  1  0
 23 24  2  0
 24 25  1  0
 25 26  2  0
 26 27  1  0
 27 28  2  0
 19 29  1  0
 29 30  2  0
  7 31  1  0
 31 32  2  0
 32 33  1  0
 33 34  2  0
 34 35  1  0
 35 36  2  0
 36 37  1  0
 37 38  2  0
 38 39  1  0
 39 40  2  0
 40 41  1  0
 41 42  2  0
 42 43  1  0
 43 44  2  0
 44 45  1  0
 45 46  2  0
 46 47  1  0
 47 48  2  0
 48  2  1  0
 15 11  1  0
 29 16  1  0
 36 31  1  0
 42 37  1  0
 48 43  1  0
 28 23  1  0
M  END
>  <Title>  (640) 
idAAWRgen14

$$$$

     RDKit          2D

116118  0  0  0  0  0  0  0  0999 V2000
   -5.2455    1.8344    0.0000 C   0  0  0  0  0  0  0  0  0  0  0  0
   -4.6176    3.1967    0.0000 C   0  0  0  0  0  0  0  0  0  0  0  0
   -5.9607    3.8646    0.0000 C   0  0  0  0  0  0  0  0  0  0  0  0
   -7.2619    4.6109    0.0000 C   0  0  0  0  0  0  0  0  0  0  0  0
   -8.5165    5.4330    0.0000 C   0  0  0  0  0  0  0  0  0  0  0  0
   -9.7203    6.3280    0.0000 C   0  0  0  0  0  0  0  0  0  0  0  0
  -10.8689    7.2927    0.0000 C   0  0  0  0  0  0  0  0  0  0  0  0
  -11.9583    8.3238    0.0000 C   0  0  0  0  0  0  0  0  0  0  0  0
  -12.9848    9.4176    0.0000 C   0  0  0  0  0  0  0  0  0  0  0  0
  -13.9446   10.5703    0.0000 C   0  0  0  0  0  0  0  0  0  0  0  0
  -14.8345   11.7778    0.0000 C   0  0  0  0  0  0  0  0  0  0  0  0
  -15.6513   13.0359    0.0000 C   0  0  0  0  0  0  0  0  0  0  0  0
  -16.3921   14.3402    0.0000 C   0  0  0  0  0  0  0  0  0  0  0  0
  -17.0543   15.6861    0.0000 C   0  0  0  0  0  0  0  0  0  0  0  0
  -17.6357   17.0689    0.0000 C   0  0  0  0  0  0  0  0  0  0  0  0
  -18.1341   18.4837    0.0000 C   0  0  0  0  0  0  0  0  0  0  0  0
  -18.5478   19.9255    0.0000 C   0  0  0  0  0  0  0  0  0  0  0  0
  -18.8754   21.3893    0.0000 C   0  0  0  0  0  0  0  0  0  0  0  0
  -19.1157   22.8699    0.0000 C   0  0  0  0  0  0  0  0  0  0  0  0
  -19.2679   24.3622    0.0000 C   0  0  0  0  0  0  0  0  0  0  0  0
  -19.3314   25.8608    0.0000 C   0  0  0  0  0  0  0  0  0  0  0  0
  -19.3060   27.3606    0.0000 C   0  0  0  0  0  0  0  0  0  0  0  0
  -19.1918   28.8563    0.0000 C   0  0  0  0  0  0  0  0  0  0  0  0
  -18.9891   30.3425    0.0000 C   0  0  0  0  0  0  0  0  0  0  0  0
  -18.6988   31.8141    0.0000 C   0  0  0  0  0  0  0  0  0  0  0  0
  -18.3219   33.2660    0.0000 C   0  0  0  0  0  0  0  0  0  0  0  0
  -17.8596   34.6930    0.0000 C   0  0  0  0  0  0  0  0  0  0  0  0
  -17.3135   36.0901    0.0000 C   0  0  0  0  0  0  0  0  0  0  0  0
  -16.6857   37.4523    0.0000 C   0  0  0  0  0  0  0  0  0  0  0  0
  -15.9782   38.7750    0.0000 C   0  0  0  0  0  0  0  0  0  0  0  0
  -15.1937   40.0535    0.0000 C   0  0  0  0  0  0  0  0  0  0  0  0
  -14.3347   41.2832    0.0000 C   0  0  0  0  0  0  0  0  0  0  0  0
  -13.4045   42.4599    0.0000 C   0  0  0  0  0  0  0  0  0  0  0  0
  -12.4062   43.5795    0.0000 C   0  0  0  0  0  0  0  0  0  0  0  0
  -11.3432   44.6379    0.0000 C   0  0  0  0  0  0  0  0  0  0  0  0
  -10.2195   45.6315    0.0000 C   0  0  0  0  0  0  0  0  0  0  0  0
   -9.0389   46.5567    0.0000 C   0  0  0  0  0  0  0  0  0  0  0  0
   -7.8055   47.4104    0.0000 C   0  0  0  0  0  0  0  0  0  0  0  0
   -6.5237   48.1896    0.0000 C   0  0  0  0  0  0  0  0  0  0  0  0
   -5.1981   48.8914    0.0000 C   0  0  0  0  0  0  0  0  0  0  0  0
   -3.8331   49.5135    0.0000 C   0  0  0  0  0  0  0  0  0  0  0  0
   -2.4338   50.0536    0.0000 C   0  0  0  0  0  0  0  0  0  0  0  0
   -1.0048   50.5099    0.0000 C   0  0  0  0  0  0  0  0  0  0  0  0
    0.4486   50.8807    0.0000 C   0  0  0  0  0  0  0  0  0  0  0  0
    1.9215   51.1648    0.0000 C   0  0  0  0  0  0  0  0  0  0  0  0
    3.4086   51.3611    0.0000 C   0  0  0  0  0  0  0  0  0  0  0  0
    4.9047   51.4689    0.0000 C   0  0  0  0  0  0  0  0  0  0  0  0
    6.4046   51.4880    0.0000 C   0  0  0  0  0  0  0  0  0  0  0  0
    7.9029   51.4182    0.0000 C   0  0  0  0  0  0  0  0  0  0  0  0
    9.3945   51.2597    0.0000 C   0  0  0  0  0  0  0  0  0  0  0  0
   10.8741   51.0131    0.0000 C   0  0  0  0  0  0  0  0  0  0  0  0
   12.3365   50.6793    0.0000 C   0  0  0  0  0  0  0  0  0  0  0  0
   13.7766   50.2595    0.0000 C   0  0  0  0  0  0  0  0  0  0  0  0
   15.1892   49.7551    0.0000 C   0  0  0  0  0  0  0  0  0  0  0  0
   16.5695   49.1679    0.0000 C   0  0  0  0  0  0  0  0  0  0  0  0
   17.9126   48.5000    0.0000 C   0  0  0  0  0  0  0  0  0  0  0  0
   19.2137   47.7536    0.0000 C   0  0  0  0  0  0  0  0  0  0  0  0
   20.4684   46.9315    0.0000 C   0  0  0  0  0  0  0  0  0  0  0  0
   21.6721   46.0366    0.0000 C   0  0  0  0  0  0  0  0  0  0  0  0
   22.8207   45.0718    0.0000 C   0  0  0  0  0  0  0  0  0  0  0  0
   23.9102   44.0408    0.0000 C   0  0  0  0  0  0  0  0  0  0  0  0
   24.9366   42.9470    0.0000 C   0  0  0  0  0  0  0  0  0  0  0  0
   25.8965   41.7943    0.0000 C   0  0  0  0  0  0  0  0  0  0  0  0
   26.7864   40.5868    0.0000 C   0  0  0  0  0  0  0  0  0  0  0  0
   27.6031   39.3286    0.0000 C   0  0  0  0  0  0  0  0  0  0  0  0
   28.3440   38.0243    0.0000 C   0  0  0  0  0  0  0  0  0  0  0  0
   29.0062   36.6784    0.0000 C   0  0  0  0  0  0  0  0  0  0  0  0
   29.5876   35.2957    0.0000 C   0  0  0  0  0  0  0  0  0  0  0  0
   30.0860   33.8809    0.0000 C   0  0  0  0  0  0  0  0  0  0  0  0
   30.4997   32.4391    0.0000 C   0  0  0  0  0  0  0  0  0  0  0  0
   30.8273   30.9753    0.0000 C   0  0  0  0  0  0  0  0  0  0  0  0
   31.0676   29.4947    0.0000 C   0  0  0  0  0  0  0  0  0  0  0  0
   31.2197   28.0024    0.0000 C   0  0  0  0  0  0  0  0  0  0  0  0
   31.2832   26.5038    0.0000 C   0  0  0  0  0  0  0  0  0  0  0  0
   31.2578   25.0040    0.0000 C   0  0  0  0  0  0  0  0  0  0  0  0
   31.1436   23.5083    0.0000 C   0  0  0  0  0  0  0  0  0  0  0  0
   30.9410   22.0221    0.0000 C   0  0  0  0  0  0  0  0  0  0  0  0
   30.6507   20.5504    0.0000 C   0  0  0  0  0  0  0  0  0  0  0  0
   30.2737   19.0986    0.0000 C   0  0  0  0  0  0  0  0  0  0  0  0
   29.8114   17.6716    0.0000 C   0  0  0  0  0  0  0  0  0  0  0  0
   29.2654   16.2745    0.0000 C   0  0  0  0  0  0  0  0  0  0  0  0
   28.6375   14.9122    0.0000 C   0  0  0  0  0  0  0  0  0  0  0  0
   27.9301   13.5895    0.0000 C   0  0  0  0  0  0  0  0  0  0  0  0
   27.1455   12.3111    0.0000 C   0  0  0  0  0  0  0  0  0  0  0  0
   26.2866   11.0813    0.0000 C   0  0  0  0  0  0  0  0  0  0  0  0
   25.3564    9.9046    0.0000 C   0  0  0  0  0  0  0  0  0  0  0  0
   24.3580    8.7851    0.0000 C   0  0  0  0  0  0  0  0  0  0  0  0
   23.2951    7.7267    0.0000 C   0  0  0  0  0  0  0  0  0  0  0  0
   22.1714    6.7331    0.0000 C   0  0  0  0  0  0  0  0  0  0  0  0
   20.9908    5.8079    0.0000 C   0  0  0  0  0  0  0  0  0  0  0  0
   19.7574    4.9541    0.0000 C   0  0  0  0  0  0  0  0  0  0  0  0
   18.4756    4.1750    0.0000 C   0  0  0  0  0  0  0  0  0  0  0  0
   17.1499    3.4732    0.0000 C   0  0  0  0  0  0  0  0  0  0  0  0
   15.7850    2.8511    0.0000 C   0  0  0  0  0  0  0  0  0  0  0  0
   14.3856    2.3110    0.0000 C   0  0  0  0  0  0  0  0  0  0  0  0
   12.9567    1.8547    0.0000 C   0  0  0  0  0  0  0  0  0  0  0  0
   11.5033    1.4839    0.0000 C   0  0  0  0  0  0  0  0  0  0  0  0
   10.0304    1.1998    0.0000 C   0  0  0  0  0  0  0  0  0  0  0  0
    8.5433    1.0035    0.0000 C   0  0  0  0  0  0  0  0  0  0  0  0
    7.0472    0.8956    0.0000 C   0  0  0  0  0  0  0  0  0  0  0  0
    5.5473    0.8766    0.0000 C   0  0  0  0  0  0  0  0  0  0  0  0
    4.0489    0.9464    0.0000 C   0  0  0  0  0  0  0  0  0  0  0  0
    2.5573    1.1049    0.0000 C   0  0  0  0  0  0  0  0  0  0  0  0
    1.0777    1.3515    0.0000 C   0  0  0  0  0  0  0  0  0  0  0  0
    1.7286    0.0000    0.0000 C   0  0  0  0  0  0  0  0  0  0  0  0
    1.0777   -1.3515    0.0000 C   0  0  0  0  0  0  0  0  0  0  0  0
   -0.3846   -1.6852    0.0000 C   0  0  0  0  0  0  0  0  0  0  0  0
   -1.5574   -0.7500    0.0000 C   0  0  0  0  0  0  0  0  0  0  0  0
   -1.5574    0.7500    0.0000 C   0  0  0  0  0  0  0  0  0  0  0  0
   -0.3846    1.6852    0.0000 C   0  0  0  0  0  0  0  0  0  0  0  0
   -1.8247    2.1051    0.0000 C   0  0  0  0  0  0  0  0  0  0  0  0
   -0.6815    3.0763    0.0000 C   0  0  0  0  0  0  0  0  0  0  0  0
   -0.9510    4.5518    0.0000 C   0  0  0  0  0  0  0  0  0  0  0  0
   -2.3637    5.0562    0.0000 C   0  0  0  0  0  0  0  0  0  0  0  0
   -3.5068    4.0851    0.0000 C   0  0  0  0  0  0  0  0  0  0  0  0
   -3.2373    2.6095    0.0000 C   0  0  0  0  0  0  0  0  0  0  0  0
  1  2  1  0
  2  3  1  0
  3  4  1  0
  4  5  1  0
  5  6  1  0
  6  7  1  0
  7  8  1  0
  8  9  1  0
  9 10  1  0
 10 11  1  0
 11 12  1  0
 12 13  1  0
 13 14  1  0
 14 15  1  0
 15 16  1  0
 16 17  1  0
 17 18  1  0
 18 19  1  0
 19 20  1  0
 20 21  1  0
 21 22  1  0
 22 23  1  0
 23 24  1  0
 24 25  1  0
 25 26  1  0
 26 27  1  0
 27 28  1  0
 28 29  1  0
 29 30  1  0
 30 31  1  0
 31 32  1  0
 32 33  1  0
 33 34  1  0
 34 35  1  0
 35 36  1  0
 36 37  1  0
 37 38  1  0
 38 39  1  0
 39 40  1  0
 40 41  1  0
 41 42  1  0
 42 43  1  0
 43 44  1  0
 44 45  1  0
 45 46  1  0
 46 47  1  0
 47 48  1  0
 48 49  1  0
 49 50  1  0
 50 51  1  0
 51 52  1  0
 52 53  1  0
 53 54  1  0
 54 55  1  0
 55 56  1  0
 56 57  1  0
 57 58  1  0
 58 59  1  0
 59 60  1  0
 60 61  1  0
 61 62  1  0
 62 63  1  0
 63 64  1  0
 64 65  1  0
 65 66  1  0
 66 67  1  0
 67 68  1  0
 68 69  1  0
 69 70  1  0
 70 71  1  0
 71 72  1  0
 72 73  1  0
 73 74  1  0
 74 75  1  0
 75 76  1  0
 76 77  1  0
 77 78  1  0
 78 79  1  0
 79 80  1  0
 80 81  1  0
 81 82  1  0
 82 83  1  0
 83 84  1  0
 84 85  1  0
 85 86  1  0
 86 87  1  0
 87 88  1  0
 88 89  1  0
 89 90  1  0
 90 91  1  0
 91 92  1  0
 92 93  1  0
 93 94  1  0
 94 95  1  0
 95 96  1  0
 96 97  1  0
 97 98  1  0
 98 99  1  0
 99100  1  0
100101  1  0
101102  1  0
102103  1  0
103104  1  0
104105  1  0
105106  1  0
106107  1  0
107108  1  0
108109  1  0
109110  1  0
110111  1  0
111112  2  0
112113  1  0
113114  2  0
114115  1  0
115116  2  0
116  2  1  0
110104  1  0
116111  1  0
M  END
>  <Title>  (641) 
idAAWSgen14

$$$$

     RDKit          2D

 38 42  0  0  0  0  0  0  0  0999 V2000
   -3.7500   -6.4952    0.0000 C   0  0  0  0  0  0  0  0  0  0  0  0
   -3.0000   -5.1962    0.0000 C   0  0  0  0  0  0  0  0  0  0  0  0
   -3.7500   -3.8971    0.0000 C   0  0  0  0  0  0  0  0  0  0  0  0
   -5.2500   -3.8971    0.0000 C   0  0  0  0  0  0  0  0  0  0  0  0
   -3.0000   -2.5981    0.0000 C   0  0  0  0  0  0  0  0  0  0  0  0
   -1.5000   -2.5981    0.0000 C   0  0  0  0  0  0  0  0  0  0  0  0
   -0.7500   -3.8971    0.0000 C   0  0  0  0  0  0  0  0  0  0  0  0
    0.7500   -3.8971    0.0000 C   0  0  0  0  0  0  0  0  0  0  0  0
    1.5000   -2.5981    0.0000 C   0  0  0  0  0  0  0  0  0  0  0  0
    3.0000   -2.5981    0.0000 C   0  0  0  0  0  0  0  0  0  0  0  0
    3.7500   -1.2990    0.0000 O   0  0  0  0  0  0  0  0  0  0  0  0
    3.7500   -3.8971    0.0000 N   0  0  0  0  0  0  0  0  0  0  0  0
    5.2500   -3.8971    0.0000 C   0  0  0  0  0  0  0  0  0  0  0  0
    6.1317   -2.6836    0.0000 N   0  0  0  0  0  0  0  0  0  0  0  0
    7.5583   -3.1471    0.0000 N   0  0  0  0  0  0  0  0  0  0  0  0
    7.5583   -4.6471    0.0000 N   0  0  0  0  0  0  0  0  0  0  0  0
    6.1317   -5.1106    0.0000 N   0  0  0  0  0  0  0  0  0  0  0  0
    5.6682   -6.5372    0.0000 N   0  0  0  0  0  0  0  0  0  0  0  0
    6.5498   -7.7508    0.0000 C   0  0  0  0  0  0  0  0  0  0  0  0
    5.6682   -8.9643    0.0000 C   0  0  0  0  0  0  0  0  0  0  0  0
    4.2416   -8.5008    0.0000 N   0  0  0  0  0  0  0  0  0  0  0  0
    3.0280   -9.3824    0.0000 C   0  0  0  0  0  0  0  0  0  0  0  0
    3.1848  -10.8742    0.0000 O   0  0  0  0  0  0  0  0  0  0  0  0
    1.6577   -8.7723    0.0000 N   0  0  0  0  0  0  0  0  0  0  0  0
    0.4442   -9.6540    0.0000 C   0  0  0  0  0  0  0  0  0  0  0  0
   -0.9261   -9.0439    0.0000 N   0  0  0  0  0  0  0  0  0  0  0  0
   -2.1396   -9.9256    0.0000 N   0  0  0  0  0  0  0  0  0  0  0  0
   -1.9829  -11.4174    0.0000 N   0  0  0  0  0  0  0  0  0  0  0  0
   -0.6125  -12.0275    0.0000 N   0  0  0  0  0  0  0  0  0  0  0  0
    0.6010  -11.1458    0.0000 N   0  0  0  0  0  0  0  0  0  0  0  0
    4.2416   -7.0008    0.0000 C   0  0  0  0  0  0  0  0  0  0  0  0
    3.0280   -6.1191    0.0000 O   0  0  0  0  0  0  0  0  0  0  0  0
    0.7500   -1.2990    0.0000 C   0  0  0  0  0  0  0  0  0  0  0  0
    1.5000    0.0000    0.0000 C   0  0  0  0  0  0  0  0  0  0  0  0
    0.7500    1.2990    0.0000 C   0  0  0  0  0  0  0  0  0  0  0  0
   -0.7500    1.2990    0.0000 C   0  0  0  0  0  0  0  0  0  0  0  0
   -1.5000    0.0000    0.0000 C   0  0  0  0  0  0  0  0  0  0  0  0
   -0.7500   -1.2990    0.0000 C   0  0  0  0  0  0  0  0  0  0  0  0
  1  2  1  0
  2  3  1  0
  3  4  1  0
  3  5  1  0
  5  6  1  0
  6  7  2  0
  7  8  1  0
  8  9  2  0
  9 10  1  0
 10 11  2  0
 10 12  1  0
 12 13  1  0
 13 14  2  0
 14 15  1  0
 15 16  2  0
 16 17  1  0
 17 18  1  0
 18 19  1  0
 19 20  1  0
 20 21  1  0
 21 22  1  0
 22 23  2  0
 22 24  1  0
 24 25  1  0
 25 26  2  0
 26 27  1  0
 27 28  2  0
 28 29  1  0
 29 30  2  0
 21 31  1  0
 31 32  2  0
  9 33  1  0
 33 34  2  0
 34 35  1  0
 35 36  2  0
 36 37  1  0
 37 38  2  0
 38  6  1  0
 17 13  1  0
 31 18  1  0
 38 33  1  0
 30 25  1  0
M  END
>  <Title>  (642) 
idAAWTgen14

$$$$

     RDKit          2D

 34 39  0  0  0  0  0  0  0  0999 V2000
    4.8653   -3.2190    0.0000 C   0  0  0  0  0  0  0  0  0  0  0  0
    5.0078   -4.7122    0.0000 C   0  0  0  0  0  0  0  0  0  0  0  0
    6.3723   -5.3353    0.0000 C   0  0  0  0  0  0  0  0  0  0  0  0
    6.5149   -6.8285    0.0000 C   0  0  0  0  0  0  0  0  0  0  0  0
    5.2930   -7.6986    0.0000 C   0  0  0  0  0  0  0  0  0  0  0  0
    3.9286   -7.0755    0.0000 C   0  0  0  0  0  0  0  0  0  0  0  0
    3.7860   -5.5823    0.0000 C   0  0  0  0  0  0  0  0  0  0  0  0
    2.4215   -4.9592    0.0000 N   0  0  0  0  0  0  0  0  0  0  0  0
    2.6350   -3.4744    0.0000 C   0  0  0  0  0  0  0  0  0  0  0  0
    2.0119   -2.1100    0.0000 C   0  0  0  0  0  0  0  0  0  0  0  0
    0.7500   -1.2990    0.0000 C   0  0  0  0  0  0  0  0  0  0  0  0
    1.5000    0.0000    0.0000 C   0  0  0  0  0  0  0  0  0  0  0  0
    0.7500    1.2990    0.0000 C   0  0  0  0  0  0  0  0  0  0  0  0
   -0.7500    1.2990    0.0000 C   0  0  0  0  0  0  0  0  0  0  0  0
   -1.5000    0.0000    0.0000 C   0  0  0  0  0  0  0  0  0  0  0  0
   -0.7500   -1.2990    0.0000 C   0  0  0  0  0  0  0  0  0  0  0  0
   -2.0119   -2.1100    0.0000 C   0  0  0  0  0  0  0  0  0  0  0  0
   -2.8820   -0.8881    0.0000 C   0  0  0  0  0  0  0  0  0  0  0  0
   -4.3752   -1.0307    0.0000 C   0  0  0  0  0  0  0  0  0  0  0  0
   -4.9983   -2.3952    0.0000 C   0  0  0  0  0  0  0  0  0  0  0  0
   -4.1282   -3.6170    0.0000 C   0  0  0  0  0  0  0  0  0  0  0  0
   -2.6350   -3.4744    0.0000 C   0  0  0  0  0  0  0  0  0  0  0  0
   -2.4215   -4.9592    0.0000 C   0  0  0  0  0  0  0  0  0  0  0  0
   -3.8944   -5.2431    0.0000 C   0  0  0  0  0  0  0  0  0  0  0  0
   -4.3850   -6.6606    0.0000 C   0  0  0  0  0  0  0  0  0  0  0  0
   -3.4027   -7.7942    0.0000 C   0  0  0  0  0  0  0  0  0  0  0  0
   -1.9298   -7.5103    0.0000 C   0  0  0  0  0  0  0  0  0  0  0  0
   -1.4392   -6.0928    0.0000 C   0  0  0  0  0  0  0  0  0  0  0  0
   -0.0000   -6.5154    0.0000 C   0  0  0  0  0  0  0  0  0  0  0  0
   -0.3536   -7.9731    0.0000 C   0  0  0  0  0  0  0  0  0  0  0  0
    0.7320   -9.0082    0.0000 C   0  0  0  0  0  0  0  0  0  0  0  0
    2.1712   -8.5856    0.0000 C   0  0  0  0  0  0  0  0  0  0  0  0
    2.5248   -7.1279    0.0000 C   0  0  0  0  0  0  0  0  0  0  0  0
    1.4392   -6.0928    0.0000 C   0  0  0  0  0  0  0  0  0  0  0  0
  1  2  1  0
  2  3  2  0
  3  4  1  0
  4  5  1  0
  5  6  1  0
  6  7  1  0
  7  8  1  0
  8  9  1  0
  9 10  1  0
 10 11  1  0
 11 12  2  0
 12 13  1  0
 13 14  2  0
 14 15  1  0
 15 16  2  0
 16 17  1  0
 17 18  2  0
 18 19  1  0
 19 20  2  0
 20 21  1  0
 21 22  2  0
 22 23  1  0
 23 24  2  0
 24 25  1  0
 25 26  2  0
 26 27  1  0
 27 28  2  0
 28 29  1  0
 29 30  2  0
 30 31  1  0
 31 32  2  0
 32 33  1  0
 33 34  2  0
  7  2  1  0
 34  8  1  0
 16 11  1  0
 22 17  1  0
 28 23  1  0
 34 29  1  0
M  END
>  <Title>  (643) 
idAAWUgen14

$$$$

     RDKit          2D

 47 53  0  0  0  0  0  0  0  0999 V2000
    1.2135   -7.3421    0.0000 C   0  0  0  0  0  0  0  0  0  0  0  0
    0.7500   -5.9156    0.0000 C   0  0  0  0  0  0  0  0  0  0  0  0
    1.9635   -5.0339    0.0000 C   0  0  0  0  0  0  0  0  0  0  0  0
    2.4271   -3.6073    0.0000 C   0  0  0  0  0  0  0  0  0  0  0  0
    1.9635   -2.1807    0.0000 C   0  0  0  0  0  0  0  0  0  0  0  0
    3.1771   -1.2990    0.0000 C   0  0  0  0  0  0  0  0  0  0  0  0
    3.0203    0.1927    0.0000 O   0  0  0  0  0  0  0  0  0  0  0  0
    4.5474   -1.9091    0.0000 N   0  0  0  0  0  0  0  0  0  0  0  0
    5.7609   -1.0275    0.0000 C   0  0  0  0  0  0  0  0  0  0  0  0
    5.7609    0.4725    0.0000 N   0  0  0  0  0  0  0  0  0  0  0  0
    7.1875    0.9361    0.0000 N   0  0  0  0  0  0  0  0  0  0  0  0
    8.0692   -0.2775    0.0000 N   0  0  0  0  0  0  0  0  0  0  0  0
    7.1875   -1.4910    0.0000 N   0  0  0  0  0  0  0  0  0  0  0  0
    7.6510   -2.9176    0.0000 C   0  0  0  0  0  0  0  0  0  0  0  0
    9.0776   -3.3811    0.0000 C   0  0  0  0  0  0  0  0  0  0  0  0
    9.0776   -4.8811    0.0000 C   0  0  0  0  0  0  0  0  0  0  0  0
    7.6510   -5.3446    0.0000 C   0  0  0  0  0  0  0  0  0  0  0  0
    7.1875   -6.7712    0.0000 O   0  0  0  0  0  0  0  0  0  0  0  0
    5.7203   -7.0831    0.0000 C   0  0  0  0  0  0  0  0  0  0  0  0
    4.7166   -5.9684    0.0000 O   0  0  0  0  0  0  0  0  0  0  0  0
    5.2567   -8.5097    0.0000 N   0  0  0  0  0  0  0  0  0  0  0  0
    6.2604   -9.6244    0.0000 C   0  0  0  0  0  0  0  0  0  0  0  0
    5.7969  -11.0510    0.0000 N   0  0  0  0  0  0  0  0  0  0  0  0
    6.8006  -12.1657    0.0000 N   0  0  0  0  0  0  0  0  0  0  0  0
    8.2678  -11.8538    0.0000 N   0  0  0  0  0  0  0  0  0  0  0  0
    8.7313  -10.4272    0.0000 N   0  0  0  0  0  0  0  0  0  0  0  0
    7.7276   -9.3125    0.0000 N   0  0  0  0  0  0  0  0  0  0  0  0
    6.7693   -4.1311    0.0000 C   0  0  0  0  0  0  0  0  0  0  0  0
    5.2693   -4.1311    0.0000 O   0  0  0  0  0  0  0  0  0  0  0  0
    0.7500   -1.2990    0.0000 C   0  0  0  0  0  0  0  0  0  0  0  0
    1.5000    0.0000    0.0000 C   0  0  0  0  0  0  0  0  0  0  0  0
    0.7500    1.2990    0.0000 C   0  0  0  0  0  0  0  0  0  0  0  0
   -0.7500    1.2990    0.0000 C   0  0  0  0  0  0  0  0  0  0  0  0
   -1.5000    0.0000    0.0000 C   0  0  0  0  0  0  0  0  0  0  0  0
   -0.7500   -1.2990    0.0000 C   0  0  0  0  0  0  0  0  0  0  0  0
   -1.9635   -2.1807    0.0000 C   0  0  0  0  0  0  0  0  0  0  0  0
   -2.9672   -1.0660    0.0000 C   0  0  0  0  0  0  0  0  0  0  0  0
   -4.4344   -1.3779    0.0000 C   0  0  0  0  0  0  0  0  0  0  0  0
   -4.8980   -2.8045    0.0000 C   0  0  0  0  0  0  0  0  0  0  0  0
   -3.8943   -3.9192    0.0000 C   0  0  0  0  0  0  0  0  0  0  0  0
   -2.4271   -3.6073    0.0000 C   0  0  0  0  0  0  0  0  0  0  0  0
   -1.9635   -5.0339    0.0000 C   0  0  0  0  0  0  0  0  0  0  0  0
   -3.3338   -5.6440    0.0000 C   0  0  0  0  0  0  0  0  0  0  0  0
   -3.4906   -7.1358    0.0000 C   0  0  0  0  0  0  0  0  0  0  0  0
   -2.2771   -8.0175    0.0000 C   0  0  0  0  0  0  0  0  0  0  0  0
   -0.9068   -7.4073    0.0000 C   0  0  0  0  0  0  0  0  0  0  0  0
   -0.7500   -5.9156    0.0000 C   0  0  0  0  0  0  0  0  0  0  0  0
  1  2  1  0
  2  3  2  0
  3  4  1  0
  4  5  2  0
  5  6  1  0
  6  7  2  0
  6  8  1  0
  8  9  1  0
  9 10  2  0
 10 11  1  0
 11 12  2  0
 12 13  1  0
 13 14  1  0
 14 15  2  0
 15 16  1  0
 16 17  2  0
 17 18  1  0
 18 19  1  0
 19 20  2  0
 19 21  1  0
 21 22  1  0
 22 23  2  0
 23 24  1  0
 24 25  2  0
 25 26  1  0
 26 27  2  0
 17 28  1  0
 28 29  2  0
  5 30  1  0
 30 31  2  0
 31 32  1  0
 32 33  2  0
 33 34  1  0
 34 35  2  0
 35 36  1  0
 36 37  2  0
 37 38  1  0
 38 39  2  0
 39 40  1  0
 40 41  2  0
 41 42  1  0
 42 43  2  0
 43 44  1  0
 44 45  2  0
 45 46  1  0
 46 47  2  0
 47  2  1  0
 13  9  1  0
 28 14  1  0
 35 30  1  0
 41 36  1  0
 47 42  1  0
 27 22  1  0
M  END
>  <Title>  (644) 
idAAWVgen14

$$$$

     RDKit          2D

  9  8  0  0  0  0  0  0  0  0999 V2000
    0.0000    0.0000    0.0000 C   0  0  0  0  0  0  0  0  0  0  0  0
    1.2990    0.7500    0.0000 C   0  0  0  0  0  0  0  0  0  0  0  0
    2.5981   -0.0000    0.0000 C   0  0  0  0  0  0  0  0  0  0  0  0
    3.8971    0.7500    0.0000 N   0  0  0  0  0  0  0  0  0  0  0  0
    5.1962   -0.0000    0.0000 C   0  0  0  0  0  0  0  0  0  0  0  0
    6.4952    0.7500    0.0000 C   0  0  0  0  0  0  0  0  0  0  0  0
    5.1962   -1.5000    0.0000 C   0  0  0  0  0  0  0  0  0  0  0  0
    6.4952   -2.2500    0.0000 C   0  0  0  0  0  0  0  0  0  0  0  0
    6.4952   -3.7500    0.0000 C   0  0  0  0  0  0  0  0  0  0  0  0
  1  2  1  0
  2  3  1  0
  3  4  1  0
  4  5  1  0
  5  6  1  0
  5  7  1  0
  7  8  1  0
  8  9  1  0
M  END
>  <Title>  (645) 
idAAWWgen14

$$$$

     RDKit          2D

 35 39  0  0  0  0  0  0  0  0999 V2000
   -4.0875    4.8984    0.0000 C   0  0  0  0  0  0  0  0  0  0  0  0
   -2.8154    4.1036    0.0000 C   0  0  0  0  0  0  0  0  0  0  0  0
   -1.6334    5.0270    0.0000 C   0  0  0  0  0  0  0  0  0  0  0  0
   -0.1343    4.9747    0.0000 C   0  0  0  0  0  0  0  0  0  0  0  0
    0.4276    6.3655    0.0000 C   0  0  0  0  0  0  0  0  0  0  0  0
   -0.4959    7.5475    0.0000 O   0  0  0  0  0  0  0  0  0  0  0  0
    1.9130    6.5742    0.0000 N   0  0  0  0  0  0  0  0  0  0  0  0
    2.4749    7.9650    0.0000 C   0  0  0  0  0  0  0  0  0  0  0  0
    1.6800    9.2371    0.0000 N   0  0  0  0  0  0  0  0  0  0  0  0
    2.6442   10.3861    0.0000 N   0  0  0  0  0  0  0  0  0  0  0  0
    4.0350    9.8242    0.0000 N   0  0  0  0  0  0  0  0  0  0  0  0
    3.9304    8.3279    0.0000 N   0  0  0  0  0  0  0  0  0  0  0  0
    5.0794    7.3637    0.0000 C   0  0  0  0  0  0  0  0  0  0  0  0
    6.4467    7.9806    0.0000 C   0  0  0  0  0  0  0  0  0  0  0  0
    7.7815    7.2963    0.0000 C   0  0  0  0  0  0  0  0  0  0  0  0
    8.0787    5.8261    0.0000 C   0  0  0  0  0  0  0  0  0  0  0  0
    7.1145    4.6770    0.0000 C   0  0  0  0  0  0  0  0  0  0  0  0
    7.7315    3.3097    0.0000 O   0  0  0  0  0  0  0  0  0  0  0  0
    5.6150    4.7144    0.0000 C   0  0  0  0  0  0  0  0  0  0  0  0
    4.7093    5.9101    0.0000 C   0  0  0  0  0  0  0  0  0  0  0  0
    0.9804    3.9710    0.0000 C   0  0  0  0  0  0  0  0  0  0  0  0
    2.3048    4.6752    0.0000 O   0  0  0  0  0  0  0  0  0  0  0  0
    1.1892    2.4856    0.0000 N   0  0  0  0  0  0  0  0  0  0  0  0
    0.3943    1.2135    0.0000 C   0  0  0  0  0  0  0  0  0  0  0  0
    1.2760    0.0000    0.0000 N   0  0  0  0  0  0  0  0  0  0  0  0
    0.3943   -1.2135    0.0000 N   0  0  0  0  0  0  0  0  0  0  0  0
   -1.0323   -0.7500    0.0000 N   0  0  0  0  0  0  0  0  0  0  0  0
   -1.0323    0.7500    0.0000 N   0  0  0  0  0  0  0  0  0  0  0  0
   -2.4231    1.3119    0.0000 C   0  0  0  0  0  0  0  0  0  0  0  0
   -3.2179    0.0398    0.0000 C   0  0  0  0  0  0  0  0  0  0  0  0
   -4.7170    0.0922    0.0000 C   0  0  0  0  0  0  0  0  0  0  0  0
   -5.4212    1.4166    0.0000 C   0  0  0  0  0  0  0  0  0  0  0  0
   -6.9203    1.4690    0.0000 O   0  0  0  0  0  0  0  0  0  0  0  0
   -4.6264    2.6887    0.0000 C   0  0  0  0  0  0  0  0  0  0  0  0
   -3.1273    2.6363    0.0000 C   0  0  0  0  0  0  0  0  0  0  0  0
  1  2  1  0
  2  3  2  0
  3  4  1  0
  4  5  1  0
  5  6  2  0
  5  7  1  0
  7  8  1  0
  8  9  2  0
  9 10  1  0
 10 11  2  0
 11 12  1  0
 12 13  1  0
 13 14  2  0
 14 15  1  0
 15 16  1  0
 16 17  1  0
 17 18  1  0
 17 19  1  0
 19 20  2  0
  4 21  1  0
 21 22  2  0
 21 23  1  0
 23 24  1  0
 24 25  2  0
 25 26  1  0
 26 27  2  0
 27 28  1  0
 28 29  1  0
 29 30  2  0
 30 31  1  0
 31 32  2  0
 32 33  1  0
 32 34  1  0
 34 35  2  0
 35  2  1  0
 12  8  1  0
 20 13  1  0
 28 24  1  0
 35 29  1  0
M  END
>  <Title>  (646) 
idAAWXgen14

$$$$

     RDKit          2D

 12 11  0  0  0  0  0  0  0  0999 V2000
    0.0000    0.0000    0.0000 C   0  0  0  0  0  0  0  0  0  0  0  0
    1.2990    0.7500    0.0000 C   0  0  0  0  0  0  0  0  0  0  0  0
    2.5981   -0.0000    0.0000 C   0  0  0  0  0  0  0  0  0  0  0  0
    3.8971    0.7500    0.0000 C   0  0  0  0  0  0  0  0  0  0  0  0
    3.8971    2.2500    0.0000 O   0  0  0  0  0  0  0  0  0  0  0  0
    5.1962   -0.0000    0.0000 N   0  0  0  0  0  0  0  0  0  0  0  0
    6.4952    0.7500    0.0000 C   0  0  0  0  0  0  0  0  0  0  0  0
    7.7942   -0.0000    0.0000 C   0  0  0  0  0  0  0  0  0  0  0  0
    9.0933    0.7500    0.0000 C   0  0  0  0  0  0  0  0  0  0  0  0
   10.3923   -0.0000    0.0000 C   0  0  0  0  0  0  0  0  0  0  0  0
    6.4952    2.2500    0.0000 O   0  0  0  0  0  0  0  0  0  0  0  0
    7.7942    3.0000    0.0000 C   0  0  0  0  0  0  0  0  0  0  0  0
  1  2  1  0
  2  3  1  0
  3  4  1  0
  4  5  2  0
  4  6  1  0
  6  7  1  0
  7  8  1  0
  8  9  1  0
  9 10  1  0
  7 11  1  0
 11 12  1  0
M  END
>  <Title>  (647) 
idAAWYgen14

$$$$

     RDKit          2D

 13 13  0  0  0  0  0  0  0  0999 V2000
    7.0607   -2.5981    0.0000 C   0  0  0  0  0  0  0  0  0  0  0  0
    5.5607   -2.5981    0.0000 C   0  0  0  0  0  0  0  0  0  0  0  0
    4.8107   -1.2990    0.0000 C   0  0  0  0  0  0  0  0  0  0  0  0
    3.3107   -1.2990    0.0000 C   0  0  0  0  0  0  0  0  0  0  0  0
    2.5607    0.0000    0.0000 C   0  0  0  0  0  0  0  0  0  0  0  0
    3.3107    1.2990    0.0000 N   0  0  0  0  0  0  0  0  0  0  0  0
    4.8107    1.2990    0.0000 C   0  0  0  0  0  0  0  0  0  0  0  0
    5.5607    2.5981    0.0000 C   0  0  0  0  0  0  0  0  0  0  0  0
    5.5607   -0.0000    0.0000 C   0  0  0  0  0  0  0  0  0  0  0  0
    1.0607    0.0000    0.0000 N   0  0  0  0  0  0  0  0  0  0  0  0
   -0.0000   -1.0607    0.0000 C   0  0  0  0  0  0  0  0  0  0  0  0
   -1.0607    0.0000    0.0000 C   0  0  0  0  0  0  0  0  0  0  0  0
    0.0000    1.0607    0.0000 C   0  0  0  0  0  0  0  0  0  0  0  0
  1  2  2  0
  2  3  1  0
  3  4  1  0
  4  5  1  0
  5  6  1  0
  6  7  1  0
  7  8  1  0
  7  9  1  0
  5 10  1  0
 10 11  1  0
 11 12  2  0
 12 13  1  0
 13 10  1  0
M  END
>  <Title>  (648) 
idAAWZgen14

$$$$

     RDKit          2D

 35 39  0  0  0  0  0  0  0  0999 V2000
   -3.1476   -2.1380    0.0000 C   0  0  0  0  0  0  0  0  0  0  0  0
   -1.6852   -2.4718    0.0000 C   0  0  0  0  0  0  0  0  0  0  0  0
   -1.3515   -3.9342    0.0000 C   0  0  0  0  0  0  0  0  0  0  0  0
   -0.0000   -4.5850    0.0000 C   0  0  0  0  0  0  0  0  0  0  0  0
    1.3515   -3.9342    0.0000 C   0  0  0  0  0  0  0  0  0  0  0  0
    1.6852   -2.4718    0.0000 C   0  0  0  0  0  0  0  0  0  0  0  0
    3.1476   -2.1380    0.0000 C   0  0  0  0  0  0  0  0  0  0  0  0
    3.5898   -0.7046    0.0000 O   0  0  0  0  0  0  0  0  0  0  0  0
    4.1679   -3.2376    0.0000 N   0  0  0  0  0  0  0  0  0  0  0  0
    5.6303   -2.9038    0.0000 C   0  0  0  0  0  0  0  0  0  0  0  0
    6.2198   -1.5245    0.0000 N   0  0  0  0  0  0  0  0  0  0  0  0
    7.7138   -1.6590    0.0000 N   0  0  0  0  0  0  0  0  0  0  0  0
    8.0476   -3.1214    0.0000 N   0  0  0  0  0  0  0  0  0  0  0  0
    6.7599   -3.8907    0.0000 N   0  0  0  0  0  0  0  0  0  0  0  0
    6.6254   -5.3847    0.0000 C   0  0  0  0  0  0  0  0  0  0  0  0
    7.7550   -6.3716    0.0000 C   0  0  0  0  0  0  0  0  0  0  0  0
    7.1655   -7.7509    0.0000 C   0  0  0  0  0  0  0  0  0  0  0  0
    5.6715   -7.6164    0.0000 C   0  0  0  0  0  0  0  0  0  0  0  0
    4.6846   -8.7460    0.0000 C   0  0  0  0  0  0  0  0  0  0  0  0
    5.1694  -10.1655    0.0000 O   0  0  0  0  0  0  0  0  0  0  0  0
    3.2129   -8.4561    0.0000 N   0  0  0  0  0  0  0  0  0  0  0  0
    2.2260   -9.5857    0.0000 C   0  0  0  0  0  0  0  0  0  0  0  0
    0.7543   -9.2959    0.0000 N   0  0  0  0  0  0  0  0  0  0  0  0
   -0.2326  -10.4255    0.0000 N   0  0  0  0  0  0  0  0  0  0  0  0
    0.2522  -11.8450    0.0000 N   0  0  0  0  0  0  0  0  0  0  0  0
    1.7239  -12.1348    0.0000 N   0  0  0  0  0  0  0  0  0  0  0  0
    2.7108  -11.0052    0.0000 N   0  0  0  0  0  0  0  0  0  0  0  0
    5.3378   -6.1540    0.0000 C   0  0  0  0  0  0  0  0  0  0  0  0
    3.9585   -5.5645    0.0000 O   0  0  0  0  0  0  0  0  0  0  0  0
    0.7500   -1.2990    0.0000 C   0  0  0  0  0  0  0  0  0  0  0  0
    1.5000    0.0000    0.0000 C   0  0  0  0  0  0  0  0  0  0  0  0
    0.7500    1.2990    0.0000 C   0  0  0  0  0  0  0  0  0  0  0  0
   -0.7500    1.2990    0.0000 C   0  0  0  0  0  0  0  0  0  0  0  0
   -1.5000    0.0000    0.0000 C   0  0  0  0  0  0  0  0  0  0  0  0
   -0.7500   -1.2990    0.0000 C   0  0  0  0  0  0  0  0  0  0  0  0
  1  2  1  0
  2  3  2  0
  3  4  1  0
  4  5  2  0
  5  6  1  0
  6  7  1  0
  7  8  2  0
  7  9  1  0
  9 10  1  0
 10 11  2  0
 11 12  1  0
 12 13  2  0
 13 14  1  0
 14 15  1  0
 15 16  2  0
 16 17  1  0
 17 18  2  0
 18 19  1  0
 19 20  2  0
 19 21  1  0
 21 22  1  0
 22 23  2  0
 23 24  1  0
 24 25  2  0
 25 26  1  0
 26 27  2  0
 18 28  1  0
 28 29  2  0
  6 30  1  0
 30 31  2  0
 31 32  1  0
 32 33  2  0
 33 34  1  0
 34 35  2  0
 35  2  1  0
 14 10  1  0
 28 15  1  0
 35 30  1  0
 27 22  1  0
M  END
>  <Title>  (649) 
idAAXAgen14

$$$$

     RDKit          2D

 12 12  0  0  0  0  0  0  0  0999 V2000
    7.5000   -2.5981    0.0000 C   0  0  0  0  0  0  0  0  0  0  0  0
    6.0000   -2.5981    0.0000 C   0  0  0  0  0  0  0  0  0  0  0  0
    5.2500   -3.8971    0.0000 C   0  0  0  0  0  0  0  0  0  0  0  0
    5.2500   -1.2990    0.0000 C   0  0  0  0  0  0  0  0  0  0  0  0
    3.7500   -1.2990    0.0000 C   0  0  0  0  0  0  0  0  0  0  0  0
    3.0000    0.0000    0.0000 N   0  0  0  0  0  0  0  0  0  0  0  0
    1.5000    0.0000    0.0000 C   0  0  0  0  0  0  0  0  0  0  0  0
    0.7500   -1.2990    0.0000 C   0  0  0  0  0  0  0  0  0  0  0  0
   -0.7500   -1.2990    0.0000 C   0  0  0  0  0  0  0  0  0  0  0  0
   -1.5000    0.0000    0.0000 C   0  0  0  0  0  0  0  0  0  0  0  0
   -0.7500    1.2990    0.0000 N   0  0  0  0  0  0  0  0  0  0  0  0
    0.7500    1.2990    0.0000 C   0  0  0  0  0  0  0  0  0  0  0  0
  1  2  1  0
  2  3  1  0
  2  4  1  0
  4  5  1  0
  5  6  1  0
  6  7  1  0
  7  8  2  0
  8  9  1  0
  9 10  2  0
 10 11  1  0
 11 12  2  0
 12  7  1  0
M  END
>  <Title>  (650) 
idAAXBgen14

$$$$

     RDKit          2D

 36 40  0  0  0  0  0  0  0  0999 V2000
    9.0000    5.1962    0.0000 N   0  0  0  0  0  0  0  0  0  0  0  0
    8.2500    3.8971    0.0000 C   0  0  0  0  0  0  0  0  0  0  0  0
    7.5000    2.5981    0.0000 C   0  0  0  0  0  0  0  0  0  0  0  0
    8.2500    1.2990    0.0000 C   0  0  0  0  0  0  0  0  0  0  0  0
    7.5000    0.0000    0.0000 C   0  0  0  0  0  0  0  0  0  0  0  0
    6.0000    0.0000    0.0000 C   0  0  0  0  0  0  0  0  0  0  0  0
    5.2500   -1.2990    0.0000 O   0  0  0  0  0  0  0  0  0  0  0  0
    6.0000   -2.5981    0.0000 C   0  0  0  0  0  0  0  0  0  0  0  0
    7.5000   -2.5981    0.0000 O   0  0  0  0  0  0  0  0  0  0  0  0
    5.2500   -3.8971    0.0000 N   0  0  0  0  0  0  0  0  0  0  0  0
    6.0000   -5.1962    0.0000 C   0  0  0  0  0  0  0  0  0  0  0  0
    7.4918   -5.3529    0.0000 N   0  0  0  0  0  0  0  0  0  0  0  0
    7.8037   -6.8202    0.0000 N   0  0  0  0  0  0  0  0  0  0  0  0
    6.5046   -7.5702    0.0000 N   0  0  0  0  0  0  0  0  0  0  0  0
    5.3899   -6.5665    0.0000 N   0  0  0  0  0  0  0  0  0  0  0  0
    3.9227   -6.8783    0.0000 N   0  0  0  0  0  0  0  0  0  0  0  0
    2.8080   -5.8746    0.0000 C   0  0  0  0  0  0  0  0  0  0  0  0
    1.5089   -6.6246    0.0000 C   0  0  0  0  0  0  0  0  0  0  0  0
    1.8208   -8.0919    0.0000 N   0  0  0  0  0  0  0  0  0  0  0  0
    0.8171   -9.2066    0.0000 C   0  0  0  0  0  0  0  0  0  0  0  0
    1.2806  -10.6332    0.0000 O   0  0  0  0  0  0  0  0  0  0  0  0
   -0.6501   -8.8947    0.0000 N   0  0  0  0  0  0  0  0  0  0  0  0
   -1.6538  -10.0094    0.0000 C   0  0  0  0  0  0  0  0  0  0  0  0
   -1.1903  -11.4360    0.0000 N   0  0  0  0  0  0  0  0  0  0  0  0
   -2.1940  -12.5507    0.0000 N   0  0  0  0  0  0  0  0  0  0  0  0
   -3.6612  -12.2389    0.0000 N   0  0  0  0  0  0  0  0  0  0  0  0
   -4.1247  -10.8123    0.0000 N   0  0  0  0  0  0  0  0  0  0  0  0
   -3.1210   -9.6976    0.0000 N   0  0  0  0  0  0  0  0  0  0  0  0
    3.3126   -8.2487    0.0000 C   0  0  0  0  0  0  0  0  0  0  0  0
    4.0626   -9.5477    0.0000 O   0  0  0  0  0  0  0  0  0  0  0  0
    5.2500    1.2990    0.0000 C   0  0  0  0  0  0  0  0  0  0  0  0
    3.7500    1.2990    0.0000 C   0  0  0  0  0  0  0  0  0  0  0  0
    3.0000    2.5981    0.0000 C   0  0  0  0  0  0  0  0  0  0  0  0
    3.7500    3.8971    0.0000 C   0  0  0  0  0  0  0  0  0  0  0  0
    5.2500    3.8971    0.0000 C   0  0  0  0  0  0  0  0  0  0  0  0
    6.0000    2.5981    0.0000 C   0  0  0  0  0  0  0  0  0  0  0  0
  1  2  3  0
  2  3  1  0
  3  4  2  0
  4  5  1  0
  5  6  2  0
  6  7  1  0
  7  8  1  0
  8  9  2  0
  8 10  1  0
 10 11  1  0
 11 12  2  0
 12 13  1  0
 13 14  2  0
 14 15  1  0
 15 16  1  0
 16 17  1  0
 17 18  1  0
 18 19  1  0
 19 20  1  0
 20 21  2  0
 20 22  1  0
 22 23  1  0
 23 24  2  0
 24 25  1  0
 25 26  2  0
 26 27  1  0
 27 28  2  0
 19 29  1  0
 29 30  2  0
  6 31  1  0
 31 32  2  0
 32 33  1  0
 33 34  2  0
 34 35  1  0
 35 36  2  0
 36  3  1  0
 15 11  1  0
 29 16  1  0
 36 31  1  0
 28 23  1  0
M  END
>  <Title>  (651) 
idAAXCgen14

$$$$

     RDKit          2D

 38 42  0  0  0  0  0  0  0  0999 V2000
   -6.0000   -5.1962    0.0000 C   0  0  0  0  0  0  0  0  0  0  0  0
   -5.2500   -3.8971    0.0000 C   0  0  0  0  0  0  0  0  0  0  0  0
   -3.7500   -3.8971    0.0000 C   0  0  0  0  0  0  0  0  0  0  0  0
   -3.0000   -5.1962    0.0000 O   0  0  0  0  0  0  0  0  0  0  0  0
   -3.0000   -2.5981    0.0000 N   0  0  0  0  0  0  0  0  0  0  0  0
   -1.5000   -2.5981    0.0000 C   0  0  0  0  0  0  0  0  0  0  0  0
   -0.7500   -3.8971    0.0000 C   0  0  0  0  0  0  0  0  0  0  0  0
    0.7500   -3.8971    0.0000 C   0  0  0  0  0  0  0  0  0  0  0  0
    1.5000   -2.5981    0.0000 C   0  0  0  0  0  0  0  0  0  0  0  0
    3.0000   -2.5981    0.0000 C   0  0  0  0  0  0  0  0  0  0  0  0
    3.7500   -1.2990    0.0000 O   0  0  0  0  0  0  0  0  0  0  0  0
    3.7500   -3.8971    0.0000 N   0  0  0  0  0  0  0  0  0  0  0  0
    5.2500   -3.8971    0.0000 C   0  0  0  0  0  0  0  0  0  0  0  0
    6.1317   -2.6836    0.0000 N   0  0  0  0  0  0  0  0  0  0  0  0
    7.5583   -3.1471    0.0000 N   0  0  0  0  0  0  0  0  0  0  0  0
    7.5583   -4.6471    0.0000 N   0  0  0  0  0  0  0  0  0  0  0  0
    6.1317   -5.1106    0.0000 N   0  0  0  0  0  0  0  0  0  0  0  0
    5.6682   -6.5372    0.0000 N   0  0  0  0  0  0  0  0  0  0  0  0
    6.5498   -7.7508    0.0000 C   0  0  0  0  0  0  0  0  0  0  0  0
    5.6682   -8.9643    0.0000 C   0  0  0  0  0  0  0  0  0  0  0  0
    4.2416   -8.5008    0.0000 N   0  0  0  0  0  0  0  0  0  0  0  0
    3.0280   -9.3824    0.0000 C   0  0  0  0  0  0  0  0  0  0  0  0
    3.1848  -10.8742    0.0000 O   0  0  0  0  0  0  0  0  0  0  0  0
    1.6577   -8.7723    0.0000 N   0  0  0  0  0  0  0  0  0  0  0  0
    0.4442   -9.6540    0.0000 C   0  0  0  0  0  0  0  0  0  0  0  0
   -0.9261   -9.0439    0.0000 N   0  0  0  0  0  0  0  0  0  0  0  0
   -2.1396   -9.9256    0.0000 N   0  0  0  0  0  0  0  0  0  0  0  0
   -1.9829  -11.4174    0.0000 N   0  0  0  0  0  0  0  0  0  0  0  0
   -0.6125  -12.0275    0.0000 N   0  0  0  0  0  0  0  0  0  0  0  0
    0.6010  -11.1458    0.0000 N   0  0  0  0  0  0  0  0  0  0  0  0
    4.2416   -7.0008    0.0000 C   0  0  0  0  0  0  0  0  0  0  0  0
    3.0280   -6.1191    0.0000 O   0  0  0  0  0  0  0  0  0  0  0  0
    0.7500   -1.2990    0.0000 C   0  0  0  0  0  0  0  0  0  0  0  0
    1.5000    0.0000    0.0000 C   0  0  0  0  0  0  0  0  0  0  0  0
    0.7500    1.2990    0.0000 C   0  0  0  0  0  0  0  0  0  0  0  0
   -0.7500    1.2990    0.0000 C   0  0  0  0  0  0  0  0  0  0  0  0
   -1.5000    0.0000    0.0000 C   0  0  0  0  0  0  0  0  0  0  0  0
   -0.7500   -1.2990    0.0000 C   0  0  0  0  0  0  0  0  0  0  0  0
  1  2  1  0
  2  3  1  0
  3  4  2  0
  3  5  1  0
  5  6  1  0
  6  7  2  0
  7  8  1  0
  8  9  2  0
  9 10  1  0
 10 11  2  0
 10 12  1  0
 12 13  1  0
 13 14  2  0
 14 15  1  0
 15 16  2  0
 16 17  1  0
 17 18  1  0
 18 19  1  0
 19 20  1  0
 20 21  1  0
 21 22  1  0
 22 23  2  0
 22 24  1  0
 24 25  1  0
 25 26  2  0
 26 27  1  0
 27 28  2  0
 28 29  1  0
 29 30  2  0
 21 31  1  0
 31 32  2  0
  9 33  1  0
 33 34  2  0
 34 35  1  0
 35 36  2  0
 36 37  1  0
 37 38  2  0
 38  6  1  0
 17 13  1  0
 31 18  1  0
 38 33  1  0
 30 25  1  0
M  END
>  <Title>  (652) 
idAAXDgen14

$$$$

     RDKit          2D

 36 40  0  0  0  0  0  0  0  0999 V2000
   -5.2500   -3.8971    0.0000 C   0  0  0  0  0  0  0  0  0  0  0  0
   -3.7500   -3.8971    0.0000 C   0  0  0  0  0  0  0  0  0  0  0  0
   -3.0000   -2.5981    0.0000 C   0  0  0  0  0  0  0  0  0  0  0  0
   -1.5000   -2.5981    0.0000 C   0  0  0  0  0  0  0  0  0  0  0  0
   -0.7500   -3.8971    0.0000 C   0  0  0  0  0  0  0  0  0  0  0  0
    0.7500   -3.8971    0.0000 C   0  0  0  0  0  0  0  0  0  0  0  0
    1.5000   -2.5981    0.0000 C   0  0  0  0  0  0  0  0  0  0  0  0
    3.0000   -2.5981    0.0000 C   0  0  0  0  0  0  0  0  0  0  0  0
    3.7500   -1.2990    0.0000 O   0  0  0  0  0  0  0  0  0  0  0  0
    3.7500   -3.8971    0.0000 N   0  0  0  0  0  0  0  0  0  0  0  0
    5.2500   -3.8971    0.0000 C   0  0  0  0  0  0  0  0  0  0  0  0
    6.1317   -2.6836    0.0000 N   0  0  0  0  0  0  0  0  0  0  0  0
    7.5583   -3.1471    0.0000 N   0  0  0  0  0  0  0  0  0  0  0  0
    7.5583   -4.6471    0.0000 N   0  0  0  0  0  0  0  0  0  0  0  0
    6.1317   -5.1106    0.0000 N   0  0  0  0  0  0  0  0  0  0  0  0
    5.6682   -6.5372    0.0000 N   0  0  0  0  0  0  0  0  0  0  0  0
    6.5498   -7.7508    0.0000 C   0  0  0  0  0  0  0  0  0  0  0  0
    5.6682   -8.9643    0.0000 C   0  0  0  0  0  0  0  0  0  0  0  0
    4.2416   -8.5008    0.0000 N   0  0  0  0  0  0  0  0  0  0  0  0
    3.0280   -9.3824    0.0000 C   0  0  0  0  0  0  0  0  0  0  0  0
    3.1848  -10.8742    0.0000 O   0  0  0  0  0  0  0  0  0  0  0  0
    1.6577   -8.7723    0.0000 N   0  0  0  0  0  0  0  0  0  0  0  0
    0.4442   -9.6540    0.0000 C   0  0  0  0  0  0  0  0  0  0  0  0
   -0.9261   -9.0439    0.0000 N   0  0  0  0  0  0  0  0  0  0  0  0
   -2.1396   -9.9256    0.0000 N   0  0  0  0  0  0  0  0  0  0  0  0
   -1.9829  -11.4174    0.0000 N   0  0  0  0  0  0  0  0  0  0  0  0
   -0.6125  -12.0275    0.0000 N   0  0  0  0  0  0  0  0  0  0  0  0
    0.6010  -11.1458    0.0000 N   0  0  0  0  0  0  0  0  0  0  0  0
    4.2416   -7.0008    0.0000 C   0  0  0  0  0  0  0  0  0  0  0  0
    3.0280   -6.1191    0.0000 O   0  0  0  0  0  0  0  0  0  0  0  0
    0.7500   -1.2990    0.0000 C   0  0  0  0  0  0  0  0  0  0  0  0
    1.5000    0.0000    0.0000 C   0  0  0  0  0  0  0  0  0  0  0  0
    0.7500    1.2990    0.0000 C   0  0  0  0  0  0  0  0  0  0  0  0
   -0.7500    1.2990    0.0000 C   0  0  0  0  0  0  0  0  0  0  0  0
   -1.5000    0.0000    0.0000 C   0  0  0  0  0  0  0  0  0  0  0  0
   -0.7500   -1.2990    0.0000 C   0  0  0  0  0  0  0  0  0  0  0  0
  1  2  2  0
  2  3  1  0
  3  4  1  0
  4  5  2  0
  5  6  1  0
  6  7  2  0
  7  8  1  0
  8  9  2  0
  8 10  1  0
 10 11  1  0
 11 12  2  0
 12 13  1  0
 13 14  2  0
 14 15  1  0
 15 16  1  0
 16 17  1  0
 17 18  1  0
 18 19  1  0
 19 20  1  0
 20 21  2  0
 20 22  1  0
 22 23  1  0
 23 24  2  0
 24 25  1  0
 25 26  2  0
 26 27  1  0
 27 28  2  0
 19 29  1  0
 29 30  2  0
  7 31  1  0
 31 32  2  0
 32 33  1  0
 33 34  2  0
 34 35  1  0
 35 36  2  0
 36  4  1  0
 15 11  1  0
 29 16  1  0
 36 31  1  0
 28 23  1  0
M  END
>  <Title>  (653) 
idAAXEgen14

$$$$

     RDKit          2D

 14 14  0  0  0  0  0  0  0  0999 V2000
   14.7760   -0.0000    0.0000 O   0  0  0  0  0  0  0  0  0  0  0  0
   13.2760   -0.0000    0.0000 C   0  0  0  0  0  0  0  0  0  0  0  0
   11.7760   -0.0000    0.0000 C   0  0  0  0  0  0  0  0  0  0  0  0
   10.2760   -0.0000    0.0000 C   0  0  0  0  0  0  0  0  0  0  0  0
    8.7760   -0.0000    0.0000 C   0  0  0  0  0  0  0  0  0  0  0  0
    7.2760   -0.0000    0.0000 C   0  0  0  0  0  0  0  0  0  0  0  0
    5.7760   -0.0000    0.0000 C   0  0  0  0  0  0  0  0  0  0  0  0
    4.2760   -0.0000    0.0000 C   0  0  0  0  0  0  0  0  0  0  0  0
    2.7760    0.0000    0.0000 C   0  0  0  0  0  0  0  0  0  0  0  0
    1.2760    0.0000    0.0000 C   0  0  0  0  0  0  0  0  0  0  0  0
    0.3943    1.2135    0.0000 C   0  0  0  0  0  0  0  0  0  0  0  0
   -1.0323    0.7500    0.0000 C   0  0  0  0  0  0  0  0  0  0  0  0
   -1.0323   -0.7500    0.0000 C   0  0  0  0  0  0  0  0  0  0  0  0
    0.3943   -1.2135    0.0000 C   0  0  0  0  0  0  0  0  0  0  0  0
  1  2  1  0
  2  3  3  0
  3  4  1  0
  4  5  3  0
  5  6  1  0
  6  7  3  0
  7  8  1  0
  8  9  3  0
  9 10  1  0
 10 11  2  0
 11 12  1  0
 12 13  1  0
 13 14  2  0
 14 10  1  0
M  END
>  <Title>  (654) 
idAAXFgen14

$$$$

     RDKit          2D

  8  8  0  0  0  0  0  0  0  0999 V2000
    3.7500   -1.2990    0.0000 C   0  0  0  0  0  0  0  0  0  0  0  0
    3.0000    0.0000    0.0000 C   0  0  0  0  0  0  0  0  0  0  0  0
    1.5000    0.0000    0.0000 C   0  0  0  0  0  0  0  0  0  0  0  0
    0.7500   -1.2990    0.0000 C   0  0  0  0  0  0  0  0  0  0  0  0
   -0.7500   -1.2990    0.0000 C   0  0  0  0  0  0  0  0  0  0  0  0
   -1.5000    0.0000    0.0000 C   0  0  0  0  0  0  0  0  0  0  0  0
   -0.7500    1.2990    0.0000 N   0  0  0  0  0  0  0  0  0  0  0  0
    0.7500    1.2990    0.0000 C   0  0  0  0  0  0  0  0  0  0  0  0
  1  2  1  0
  2  3  1  0
  3  4  2  0
  4  5  1  0
  5  6  2  0
  6  7  1  0
  7  8  2  0
  8  3  1  0
M  END
>  <Title>  (655) 
idAAXGgen14

$$$$

     RDKit          2D

 11 10  0  0  0  0  0  0  0  0999 V2000
   -0.0000   -1.5000    0.0000 N   0  0  0  0  0  0  0  0  0  0  0  0
    0.0000    0.0000    0.0000 C   0  0  0  0  0  0  0  0  0  0  0  0
    0.0000    1.5000    0.0000 C   0  0  0  0  0  0  0  0  0  0  0  0
    1.2990    2.2500    0.0000 C   0  0  0  0  0  0  0  0  0  0  0  0
    1.2990    3.7500    0.0000 C   0  0  0  0  0  0  0  0  0  0  0  0
    2.5981    4.5000    0.0000 C   0  0  0  0  0  0  0  0  0  0  0  0
    2.5981    6.0000    0.0000 C   0  0  0  0  0  0  0  0  0  0  0  0
    3.8971    6.7500    0.0000 C   0  0  0  0  0  0  0  0  0  0  0  0
    3.8971    8.2500    0.0000 C   0  0  0  0  0  0  0  0  0  0  0  0
    5.1962    9.0000    0.0000 C   0  0  0  0  0  0  0  0  0  0  0  0
    6.4952    9.7500    0.0000 N   0  0  0  0  0  0  0  0  0  0  0  0
  1  2  3  0
  2  3  1  0
  3  4  1  0
  4  5  1  0
  5  6  1  0
  6  7  1  0
  7  8  1  0
  8  9  1  0
  9 10  1  0
 10 11  3  0
M  END
>  <Title>  (656) 
idAAXHgen14

$$$$

     RDKit          2D

 14 13  0  0  0  0  0  0  0  0999 V2000
    0.0000    0.0000    0.0000 C   0  0  0  0  0  0  0  0  0  0  0  0
    1.2990    0.7500    0.0000 C   0  0  0  0  0  0  0  0  0  0  0  0
    2.5981   -0.0000    0.0000 C   0  0  0  0  0  0  0  0  0  0  0  0
    3.8971    0.7500    0.0000 C   0  0  0  0  0  0  0  0  0  0  0  0
    3.8971    2.2500    0.0000 O   0  0  0  0  0  0  0  0  0  0  0  0
    5.1962   -0.0000    0.0000 N   0  0  0  0  0  0  0  0  0  0  0  0
    6.4952    0.7500    0.0000 C   0  0  0  0  0  0  0  0  0  0  0  0
    7.7942   -0.0000    0.0000 C   0  0  0  0  0  0  0  0  0  0  0  0
    6.4952    2.2500    0.0000 C   0  0  0  0  0  0  0  0  0  0  0  0
    7.7942    3.0000    0.0000 C   0  0  0  0  0  0  0  0  0  0  0  0
    7.7942    4.5000    0.0000 C   0  0  0  0  0  0  0  0  0  0  0  0
    9.0933    2.2500    0.0000 C   0  0  0  0  0  0  0  0  0  0  0  0
   10.3923    3.0000    0.0000 C   0  0  0  0  0  0  0  0  0  0  0  0
   11.6913    2.2500    0.0000 C   0  0  0  0  0  0  0  0  0  0  0  0
  1  2  1  0
  2  3  1  0
  3  4  1  0
  4  5  2  0
  4  6  1  0
  6  7  1  0
  7  8  1  0
  7  9  1  0
  9 10  1  0
 10 11  1  0
 10 12  1  0
 12 13  1  0
 13 14  1  0
M  END
>  <Title>  (657) 
idAAXIgen14

$$$$

     RDKit          2D

 15 16  0  0  0  0  0  0  0  0999 V2000
    3.3287    1.8373    0.0000 O   0  0  0  0  0  0  0  0  0  0  0  0
    2.3250    2.9520    0.0000 C   0  0  0  0  0  0  0  0  0  0  0  0
    0.8578    2.6401    0.0000 C   0  0  0  0  0  0  0  0  0  0  0  0
    0.3943    1.2135    0.0000 C   0  0  0  0  0  0  0  0  0  0  0  0
    1.2760    0.0000    0.0000 C   0  0  0  0  0  0  0  0  0  0  0  0
    0.3943   -1.2135    0.0000 C   0  0  0  0  0  0  0  0  0  0  0  0
   -1.0323   -0.7500    0.0000 C   0  0  0  0  0  0  0  0  0  0  0  0
   -1.0323    0.7500    0.0000 N   0  0  0  0  0  0  0  0  0  0  0  0
    2.7886    4.3786    0.0000 N   0  0  0  0  0  0  0  0  0  0  0  0
    4.2558    4.6904    0.0000 C   0  0  0  0  0  0  0  0  0  0  0  0
    4.7193    6.1170    0.0000 C   0  0  0  0  0  0  0  0  0  0  0  0
    3.8376    7.3305    0.0000 C   0  0  0  0  0  0  0  0  0  0  0  0
    4.7193    8.5441    0.0000 N   0  0  0  0  0  0  0  0  0  0  0  0
    6.1459    8.0805    0.0000 C   0  0  0  0  0  0  0  0  0  0  0  0
    6.1459    6.5805    0.0000 N   0  0  0  0  0  0  0  0  0  0  0  0
  1  2  1  0
  2  3  1  0
  3  4  1  0
  4  5  2  0
  5  6  1  0
  6  7  1  0
  7  8  2  0
  2  9  1  0
  9 10  1  0
 10 11  1  0
 11 12  2  0
 12 13  1  0
 13 14  1  0
 14 15  2  0
  8  4  1  0
 15 11  1  0
M  END
>  <Title>  (658) 
idAAXJgen14

$$$$

     RDKit          2D

 17 17  0  0  0  0  0  0  0  0999 V2000
    5.2500   -6.4952    0.0000 C   0  0  0  0  0  0  0  0  0  0  0  0
    6.0000   -5.1962    0.0000 C   0  0  0  0  0  0  0  0  0  0  0  0
    7.5000   -5.1962    0.0000 C   0  0  0  0  0  0  0  0  0  0  0  0
    5.2500   -3.8971    0.0000 C   0  0  0  0  0  0  0  0  0  0  0  0
    6.0000   -2.5981    0.0000 C   0  0  0  0  0  0  0  0  0  0  0  0
    7.5000   -2.5981    0.0000 C   0  0  0  0  0  0  0  0  0  0  0  0
    5.2500   -1.2990    0.0000 N   0  0  0  0  0  0  0  0  0  0  0  0
    3.7500   -1.2990    0.0000 C   0  0  0  0  0  0  0  0  0  0  0  0
    3.0000   -2.5981    0.0000 O   0  0  0  0  0  0  0  0  0  0  0  0
    3.0000    0.0000    0.0000 C   0  0  0  0  0  0  0  0  0  0  0  0
    1.5000    0.0000    0.0000 C   0  0  0  0  0  0  0  0  0  0  0  0
    0.7500   -1.2990    0.0000 C   0  0  0  0  0  0  0  0  0  0  0  0
   -0.7500   -1.2990    0.0000 C   0  0  0  0  0  0  0  0  0  0  0  0
   -1.5000    0.0000    0.0000 C   0  0  0  0  0  0  0  0  0  0  0  0
   -0.7500    1.2990    0.0000 C   0  0  0  0  0  0  0  0  0  0  0  0
   -1.5000    2.5981    0.0000 F   0  0  0  0  0  0  0  0  0  0  0  0
    0.7500    1.2990    0.0000 C   0  0  0  0  0  0  0  0  0  0  0  0
  1  2  1  0
  2  3  1  0
  2  4  1  0
  4  5  1  0
  5  6  1  0
  5  7  1  0
  7  8  1  0
  8  9  2  0
  8 10  1  0
 10 11  1  0
 11 12  2  0
 12 13  1  0
 13 14  1  0
 14 15  1  0
 15 16  1  0
 15 17  1  0
 17 11  1  0
M  END
>  <Title>  (659) 
idAAXKgen14

$$$$

     RDKit          2D

 36 40  0  0  0  0  0  0  0  0999 V2000
   -3.1476   -2.1380    0.0000 C   0  0  0  0  0  0  0  0  0  0  0  0
   -1.6852   -2.4718    0.0000 C   0  0  0  0  0  0  0  0  0  0  0  0
   -1.3515   -3.9342    0.0000 C   0  0  0  0  0  0  0  0  0  0  0  0
   -0.0000   -4.5850    0.0000 C   0  0  0  0  0  0  0  0  0  0  0  0
    1.3515   -3.9342    0.0000 C   0  0  0  0  0  0  0  0  0  0  0  0
    1.6852   -2.4718    0.0000 C   0  0  0  0  0  0  0  0  0  0  0  0
    3.1476   -2.1380    0.0000 C   0  0  0  0  0  0  0  0  0  0  0  0
    3.5898   -0.7046    0.0000 O   0  0  0  0  0  0  0  0  0  0  0  0
    4.1679   -3.2376    0.0000 N   0  0  0  0  0  0  0  0  0  0  0  0
    5.6303   -2.9038    0.0000 C   0  0  0  0  0  0  0  0  0  0  0  0
    6.2198   -1.5245    0.0000 N   0  0  0  0  0  0  0  0  0  0  0  0
    7.7138   -1.6590    0.0000 N   0  0  0  0  0  0  0  0  0  0  0  0
    8.0476   -3.1214    0.0000 N   0  0  0  0  0  0  0  0  0  0  0  0
    6.7599   -3.8907    0.0000 N   0  0  0  0  0  0  0  0  0  0  0  0
    6.6254   -5.3847    0.0000 C   0  0  0  0  0  0  0  0  0  0  0  0
    7.7550   -6.3716    0.0000 C   0  0  0  0  0  0  0  0  0  0  0  0
    7.1655   -7.7509    0.0000 C   0  0  0  0  0  0  0  0  0  0  0  0
    5.6715   -7.6164    0.0000 C   0  0  0  0  0  0  0  0  0  0  0  0
    4.6846   -8.7460    0.0000 C   0  0  0  0  0  0  0  0  0  0  0  0
    5.1694  -10.1655    0.0000 O   0  0  0  0  0  0  0  0  0  0  0  0
    3.2129   -8.4561    0.0000 N   0  0  0  0  0  0  0  0  0  0  0  0
    2.2260   -9.5857    0.0000 C   0  0  0  0  0  0  0  0  0  0  0  0
    0.7543   -9.2959    0.0000 N   0  0  0  0  0  0  0  0  0  0  0  0
   -0.2326  -10.4255    0.0000 N   0  0  0  0  0  0  0  0  0  0  0  0
    0.2522  -11.8450    0.0000 N   0  0  0  0  0  0  0  0  0  0  0  0
    1.7239  -12.1348    0.0000 N   0  0  0  0  0  0  0  0  0  0  0  0
    2.7108  -11.0052    0.0000 N   0  0  0  0  0  0  0  0  0  0  0  0
    5.3378   -6.1540    0.0000 C   0  0  0  0  0  0  0  0  0  0  0  0
    3.9585   -5.5645    0.0000 O   0  0  0  0  0  0  0  0  0  0  0  0
    0.7500   -1.2990    0.0000 C   0  0  0  0  0  0  0  0  0  0  0  0
    1.5000    0.0000    0.0000 C   0  0  0  0  0  0  0  0  0  0  0  0
    0.7500    1.2990    0.0000 C   0  0  0  0  0  0  0  0  0  0  0  0
   -0.7500    1.2990    0.0000 C   0  0  0  0  0  0  0  0  0  0  0  0
   -1.5000    2.5981    0.0000 O   0  0  0  0  0  0  0  0  0  0  0  0
   -1.5000    0.0000    0.0000 C   0  0  0  0  0  0  0  0  0  0  0  0
   -0.7500   -1.2990    0.0000 C   0  0  0  0  0  0  0  0  0  0  0  0
  1  2  1  0
  2  3  1  0
  3  4  2  0
  4  5  1  0
  5  6  2  0
  6  7  1  0
  7  8  2  0
  7  9  1  0
  9 10  1  0
 10 11  2  0
 11 12  1  0
 12 13  2  0
 13 14  1  0
 14 15  1  0
 15 16  2  0
 16 17  1  0
 17 18  2  0
 18 19  1  0
 19 20  2  0
 19 21  1  0
 21 22  1  0
 22 23  2  0
 23 24  1  0
 24 25  2  0
 25 26  1  0
 26 27  2  0
 18 28  1  0
 28 29  2  0
  6 30  1  0
 30 31  2  0
 31 32  1  0
 32 33  2  0
 33 34  1  0
 33 35  1  0
 35 36  2  0
 36  2  1  0
 14 10  1  0
 28 15  1  0
 36 30  1  0
 27 22  1  0
M  END
>  <Title>  (660) 
idAAXLgen14

$$$$

     RDKit          2D

 13 14  0  0  0  0  0  0  0  0999 V2000
   -1.8373   -5.6601    0.0000 O   0  0  0  0  0  0  0  0  0  0  0  0
   -2.9520   -4.6564    0.0000 C   0  0  0  0  0  0  0  0  0  0  0  0
   -4.3786   -5.1199    0.0000 O   0  0  0  0  0  0  0  0  0  0  0  0
   -2.6401   -3.1891    0.0000 N   0  0  0  0  0  0  0  0  0  0  0  0
   -1.2135   -2.7256    0.0000 C   0  0  0  0  0  0  0  0  0  0  0  0
   -0.0000   -3.6073    0.0000 C   0  0  0  0  0  0  0  0  0  0  0  0
    1.2135   -2.7256    0.0000 C   0  0  0  0  0  0  0  0  0  0  0  0
    0.7500   -1.2990    0.0000 C   0  0  0  0  0  0  0  0  0  0  0  0
    1.5000    0.0000    0.0000 C   0  0  0  0  0  0  0  0  0  0  0  0
    0.7500    1.2990    0.0000 C   0  0  0  0  0  0  0  0  0  0  0  0
   -0.7500    1.2990    0.0000 C   0  0  0  0  0  0  0  0  0  0  0  0
   -1.5000    0.0000    0.0000 C   0  0  0  0  0  0  0  0  0  0  0  0
   -0.7500   -1.2990    0.0000 C   0  0  0  0  0  0  0  0  0  0  0  0
  1  2  2  0
  2  3  1  0
  2  4  1  0
  4  5  1  0
  5  6  2  0
  6  7  1  0
  7  8  1  0
  8  9  2  0
  9 10  1  0
 10 11  2  0
 11 12  1  0
 12 13  2  0
 13  5  1  0
 13  8  1  0
M  END
>  <Title>  (661) 
idAAXMgen14

$$$$

     RDKit          2D

 10  9  0  0  0  0  0  0  0  0999 V2000
    0.0000    0.0000    0.0000 C   0  0  0  0  0  0  0  0  0  0  0  0
    1.2990    0.7500    0.0000 C   0  0  0  0  0  0  0  0  0  0  0  0
    2.5981   -0.0000    0.0000 C   0  0  0  0  0  0  0  0  0  0  0  0
    3.8971    0.7500    0.0000 C   0  0  0  0  0  0  0  0  0  0  0  0
    5.1962    1.5000    0.0000 C   0  0  0  0  0  0  0  0  0  0  0  0
    6.4952    2.2500    0.0000 C   0  0  0  0  0  0  0  0  0  0  0  0
    7.7942    3.0000    0.0000 C   0  0  0  0  0  0  0  0  0  0  0  0
    9.0933    3.7500    0.0000 C   0  0  0  0  0  0  0  0  0  0  0  0
   10.3923    3.0000    0.0000 N   0  0  0  0  0  0  0  0  0  0  0  0
   11.6913    3.7500    0.0000 C   0  0  0  0  0  0  0  0  0  0  0  0
  1  2  1  0
  2  3  1  0
  3  4  1  0
  4  5  3  0
  5  6  1  0
  6  7  3  0
  7  8  1  0
  8  9  1  0
  9 10  1  0
M  END
>  <Title>  (662) 
idAAXNgen14

$$$$

     RDKit          2D

  7  6  0  0  0  0  0  0  0  0999 V2000
    0.0000    0.0000    0.0000 C   0  0  0  0  0  0  0  0  0  0  0  0
    1.2990    0.7500    0.0000 N   0  0  0  0  0  0  0  0  0  0  0  0
    2.5981   -0.0000    0.0000 C   0  0  0  0  0  0  0  0  0  0  0  0
    3.8971    0.7500    0.0000 C   0  0  0  0  0  0  0  0  0  0  0  0
    5.1962   -0.0000    0.0000 C   0  0  0  0  0  0  0  0  0  0  0  0
    6.4952    0.7500    0.0000 C   0  0  0  0  0  0  0  0  0  0  0  0
    5.1962   -1.5000    0.0000 C   0  0  0  0  0  0  0  0  0  0  0  0
  1  2  1  0
  2  3  2  3
  3  4  1  0
  4  5  1  0
  5  6  1  0
  5  7  1  0
M  END
>  <Title>  (663) 
idAAXOgen14

$$$$

     RDKit          2D

 37 41  0  0  0  0  0  0  0  0999 V2000
   -3.1965   -1.7857    0.0000 C   0  0  0  0  0  0  0  0  0  0  0  0
   -1.8107   -2.3597    0.0000 C   0  0  0  0  0  0  0  0  0  0  0  0
   -1.8107   -3.8597    0.0000 C   0  0  0  0  0  0  0  0  0  0  0  0
   -0.7500   -4.9204    0.0000 C   0  0  0  0  0  0  0  0  0  0  0  0
    0.7500   -4.9204    0.0000 C   0  0  0  0  0  0  0  0  0  0  0  0
    1.8107   -3.8597    0.0000 C   0  0  0  0  0  0  0  0  0  0  0  0
    1.8107   -2.3597    0.0000 C   0  0  0  0  0  0  0  0  0  0  0  0
    3.1965   -1.7857    0.0000 C   0  0  0  0  0  0  0  0  0  0  0  0
    3.3923   -0.2985    0.0000 O   0  0  0  0  0  0  0  0  0  0  0  0
    4.3865   -2.6988    0.0000 N   0  0  0  0  0  0  0  0  0  0  0  0
    5.7723   -2.1248    0.0000 C   0  0  0  0  0  0  0  0  0  0  0  0
    6.1225   -0.6662    0.0000 N   0  0  0  0  0  0  0  0  0  0  0  0
    7.6179   -0.5485    0.0000 N   0  0  0  0  0  0  0  0  0  0  0  0
    8.1919   -1.9344    0.0000 N   0  0  0  0  0  0  0  0  0  0  0  0
    7.0513   -2.9085    0.0000 N   0  0  0  0  0  0  0  0  0  0  0  0
    7.1690   -4.4039    0.0000 C   0  0  0  0  0  0  0  0  0  0  0  0
    8.4479   -5.1877    0.0000 C   0  0  0  0  0  0  0  0  0  0  0  0
    8.0978   -6.6462    0.0000 C   0  0  0  0  0  0  0  0  0  0  0  0
    6.6024   -6.7639    0.0000 C   0  0  0  0  0  0  0  0  0  0  0  0
    5.8186   -8.0429    0.0000 C   0  0  0  0  0  0  0  0  0  0  0  0
    6.5344   -9.3611    0.0000 O   0  0  0  0  0  0  0  0  0  0  0  0
    4.3192   -8.0036    0.0000 N   0  0  0  0  0  0  0  0  0  0  0  0
    3.5354   -9.2826    0.0000 C   0  0  0  0  0  0  0  0  0  0  0  0
    2.0359   -9.2433    0.0000 N   0  0  0  0  0  0  0  0  0  0  0  0
    1.2522  -10.5223    0.0000 N   0  0  0  0  0  0  0  0  0  0  0  0
    1.9679  -11.8405    0.0000 N   0  0  0  0  0  0  0  0  0  0  0  0
    3.4674  -11.8797    0.0000 N   0  0  0  0  0  0  0  0  0  0  0  0
    4.2512  -10.6008    0.0000 N   0  0  0  0  0  0  0  0  0  0  0  0
    6.0284   -5.3781    0.0000 C   0  0  0  0  0  0  0  0  0  0  0  0
    4.5698   -5.0279    0.0000 O   0  0  0  0  0  0  0  0  0  0  0  0
    0.7500   -1.2990    0.0000 C   0  0  0  0  0  0  0  0  0  0  0  0
    1.5000    0.0000    0.0000 C   0  0  0  0  0  0  0  0  0  0  0  0
    0.7500    1.2990    0.0000 C   0  0  0  0  0  0  0  0  0  0  0  0
   -0.7500    1.2990    0.0000 C   0  0  0  0  0  0  0  0  0  0  0  0
   -1.5000    2.5981    0.0000 O   0  0  0  0  0  0  0  0  0  0  0  0
   -1.5000    0.0000    0.0000 C   0  0  0  0  0  0  0  0  0  0  0  0
   -0.7500   -1.2990    0.0000 C   0  0  0  0  0  0  0  0  0  0  0  0
  1  2  1  0
  2  3  1  0
  3  4  2  0
  4  5  1  0
  5  6  1  0
  6  7  1  0
  7  8  1  0
  8  9  2  0
  8 10  1  0
 10 11  1  0
 11 12  2  0
 12 13  1  0
 13 14  2  0
 14 15  1  0
 15 16  1  0
 16 17  2  0
 17 18  1  0
 18 19  2  0
 19 20  1  0
 20 21  2  0
 20 22  1  0
 22 23  1  0
 23 24  2  0
 24 25  1  0
 25 26  2  0
 26 27  1  0
 27 28  2  0
 19 29  1  0
 29 30  2  0
  7 31  1  0
 31 32  2  0
 32 33  1  0
 33 34  2  0
 34 35  1  0
 34 36  1  0
 36 37  2  0
 37  2  1  0
 15 11  1  0
 29 16  1  0
 37 31  1  0
 28 23  1  0
M  END
>  <Title>  (664) 
idAAXPgen14

$$$$

     RDKit          2D

 27 26  0  0  0  0  0  0  0  0999 V2000
    0.0000    0.0000    0.0000 C   0  0  0  0  0  0  0  0  0  0  0  0
   -0.0000   -1.5000    0.0000 C   0  0  0  0  0  0  0  0  0  0  0  0
   -0.0000   -3.0000    0.0000 C   0  0  0  0  0  0  0  0  0  0  0  0
   -0.0000   -4.5000    0.0000 C   0  0  0  0  0  0  0  0  0  0  0  0
   -0.0000   -6.0000    0.0000 C   0  0  0  0  0  0  0  0  0  0  0  0
   -0.0000   -7.5000    0.0000 C   0  0  0  0  0  0  0  0  0  0  0  0
   -0.0000   -9.0000    0.0000 C   0  0  0  0  0  0  0  0  0  0  0  0
   -0.0000  -10.5000    0.0000 C   0  0  0  0  0  0  0  0  0  0  0  0
   -0.0000  -12.0000    0.0000 C   0  0  0  0  0  0  0  0  0  0  0  0
   -0.0000  -13.5000    0.0000 C   0  0  0  0  0  0  0  0  0  0  0  0
   -0.0000  -15.0000    0.0000 C   0  0  0  0  0  0  0  0  0  0  0  0
   -0.0000  -16.5000    0.0000 C   0  0  0  0  0  0  0  0  0  0  0  0
   -0.0000  -18.0000    0.0000 C   0  0  0  0  0  0  0  0  0  0  0  0
   -0.0000  -19.5000    0.0000 C   0  0  0  0  0  0  0  0  0  0  0  0
   -0.0000  -21.0000    0.0000 C   0  0  0  0  0  0  0  0  0  0  0  0
   -0.0000  -22.5000    0.0000 C   0  0  0  0  0  0  0  0  0  0  0  0
   -0.0000  -24.0000    0.0000 C   0  0  0  0  0  0  0  0  0  0  0  0
   -0.0000  -25.5000    0.0000 C   0  0  0  0  0  0  0  0  0  0  0  0
   -0.0000  -27.0000    0.0000 C   0  0  0  0  0  0  0  0  0  0  0  0
   -0.0000  -28.5000    0.0000 C   0  0  0  0  0  0  0  0  0  0  0  0
   -0.0000  -30.0000    0.0000 C   0  0  0  0  0  0  0  0  0  0  0  0
   -0.0000  -31.5000    0.0000 C   0  0  0  0  0  0  0  0  0  0  0  0
   -0.0000  -33.0000    0.0000 C   0  0  0  0  0  0  0  0  0  0  0  0
   -0.0000  -34.5000    0.0000 C   0  0  0  0  0  0  0  0  0  0  0  0
   -0.0000  -36.0000    0.0000 C   0  0  0  0  0  0  0  0  0  0  0  0
    1.2990  -36.7500    0.0000 C   0  0  0  0  0  0  0  0  0  0  0  0
   -1.2990  -36.7500    0.0000 C   0  0  0  0  0  0  0  0  0  0  0  0
  1  2  3  0
  2  3  1  0
  3  4  3  0
  4  5  1  0
  5  6  3  0
  6  7  1  0
  7  8  3  0
  8  9  1  0
  9 10  3  0
 10 11  1  0
 11 12  3  0
 12 13  1  0
 13 14  3  0
 14 15  1  0
 15 16  3  0
 16 17  1  0
 17 18  3  0
 18 19  1  0
 19 20  3  0
 20 21  1  0
 21 22  3  0
 22 23  1  0
 23 24  3  0
 24 25  1  0
 25 26  1  0
 25 27  1  0
M  END
>  <Title>  (665) 
idAAXQgen14

$$$$

     RDKit          2D

 14 14  0  0  0  0  0  0  0  0999 V2000
    9.7500   -3.8971    0.0000 C   0  0  0  0  0  0  0  0  0  0  0  0
    8.2500   -3.8971    0.0000 C   0  0  0  0  0  0  0  0  0  0  0  0
    7.5000   -2.5981    0.0000 C   0  0  0  0  0  0  0  0  0  0  0  0
    6.0000   -2.5981    0.0000 N   0  0  0  0  0  0  0  0  0  0  0  0
    5.2500   -1.2990    0.0000 C   0  0  0  0  0  0  0  0  0  0  0  0
    6.0000    0.0000    0.0000 O   0  0  0  0  0  0  0  0  0  0  0  0
    3.7500   -1.2990    0.0000 C   0  0  0  0  0  0  0  0  0  0  0  0
    3.0000    0.0000    0.0000 C   0  0  0  0  0  0  0  0  0  0  0  0
    1.5000    0.0000    0.0000 C   0  0  0  0  0  0  0  0  0  0  0  0
    0.7500   -1.2990    0.0000 C   0  0  0  0  0  0  0  0  0  0  0  0
   -0.7500   -1.2990    0.0000 C   0  0  0  0  0  0  0  0  0  0  0  0
   -1.5000    0.0000    0.0000 C   0  0  0  0  0  0  0  0  0  0  0  0
   -0.7500    1.2990    0.0000 C   0  0  0  0  0  0  0  0  0  0  0  0
    0.7500    1.2990    0.0000 C   0  0  0  0  0  0  0  0  0  0  0  0
  1  2  1  0
  2  3  2  3
  3  4  1  0
  4  5  1  0
  5  6  2  0
  5  7  1  0
  7  8  1  0
  8  9  1  0
  9 10  2  0
 10 11  1  0
 11 12  2  0
 12 13  1  0
 13 14  2  0
 14  9  1  0
M  END
>  <Title>  (666) 
idAAXRgen14

$$$$

     RDKit          2D

  7  7  0  0  0  0  0  0  0  0999 V2000
    3.0000    0.0000    0.0000 C   0  0  0  0  0  0  0  0  0  0  0  0
    1.5000    0.0000    0.0000 C   0  0  0  0  0  0  0  0  0  0  0  0
    0.7500   -1.2990    0.0000 C   0  0  0  0  0  0  0  0  0  0  0  0
   -0.7500   -1.2990    0.0000 C   0  0  0  0  0  0  0  0  0  0  0  0
   -1.5000    0.0000    0.0000 C   0  0  0  0  0  0  0  0  0  0  0  0
   -0.7500    1.2990    0.0000 N   0  0  0  0  0  0  0  0  0  0  0  0
    0.7500    1.2990    0.0000 C   0  0  0  0  0  0  0  0  0  0  0  0
  1  2  1  0
  2  3  2  0
  3  4  1  0
  4  5  2  0
  5  6  1  0
  6  7  2  0
  7  2  1  0
M  END
>  <Title>  (667) 
idAAXSgen14

$$$$

     RDKit          2D

 27 27  0  0  0  0  0  0  0  0999 V2000
   31.5000   -2.5981    0.0000 C   0  0  0  0  0  0  0  0  0  0  0  0
   30.0000   -2.5981    0.0000 C   0  0  0  0  0  0  0  0  0  0  0  0
   29.2500   -1.2990    0.0000 C   0  0  0  0  0  0  0  0  0  0  0  0
   27.7500   -1.2990    0.0000 C   0  0  0  0  0  0  0  0  0  0  0  0
   27.0000    0.0000    0.0000 C   0  0  0  0  0  0  0  0  0  0  0  0
   25.5000    0.0000    0.0000 C   0  0  0  0  0  0  0  0  0  0  0  0
   24.0000    0.0000    0.0000 C   0  0  0  0  0  0  0  0  0  0  0  0
   22.5000    0.0000    0.0000 C   0  0  0  0  0  0  0  0  0  0  0  0
   21.0000    0.0000    0.0000 C   0  0  0  0  0  0  0  0  0  0  0  0
   19.5000    0.0000    0.0000 C   0  0  0  0  0  0  0  0  0  0  0  0
   18.0000    0.0000    0.0000 C   0  0  0  0  0  0  0  0  0  0  0  0
   16.5000    0.0000    0.0000 C   0  0  0  0  0  0  0  0  0  0  0  0
   15.0000    0.0000    0.0000 C   0  0  0  0  0  0  0  0  0  0  0  0
   13.5000    0.0000    0.0000 C   0  0  0  0  0  0  0  0  0  0  0  0
   12.0000    0.0000    0.0000 C   0  0  0  0  0  0  0  0  0  0  0  0
   10.5000    0.0000    0.0000 C   0  0  0  0  0  0  0  0  0  0  0  0
    9.0000    0.0000    0.0000 C   0  0  0  0  0  0  0  0  0  0  0  0
    7.5000    0.0000    0.0000 C   0  0  0  0  0  0  0  0  0  0  0  0
    6.0000    0.0000    0.0000 C   0  0  0  0  0  0  0  0  0  0  0  0
    4.5000    0.0000    0.0000 C   0  0  0  0  0  0  0  0  0  0  0  0
    3.0000    0.0000    0.0000 C   0  0  0  0  0  0  0  0  0  0  0  0
    1.5000    0.0000    0.0000 C   0  0  0  0  0  0  0  0  0  0  0  0
    0.7500   -1.2990    0.0000 C   0  0  0  0  0  0  0  0  0  0  0  0
   -0.7500   -1.2990    0.0000 C   0  0  0  0  0  0  0  0  0  0  0  0
   -1.5000    0.0000    0.0000 C   0  0  0  0  0  0  0  0  0  0  0  0
   -0.7500    1.2990    0.0000 N   0  0  0  0  0  0  0  0  0  0  0  0
    0.7500    1.2990    0.0000 C   0  0  0  0  0  0  0  0  0  0  0  0
  1  2  1  0
  2  3  1  0
  3  4  1  0
  4  5  1  0
  5  6  1  0
  6  7  3  0
  7  8  1  0
  8  9  3  0
  9 10  1  0
 10 11  3  0
 11 12  1  0
 12 13  3  0
 13 14  1  0
 14 15  3  0
 15 16  1  0
 16 17  3  0
 17 18  1  0
 18 19  3  0
 19 20  1  0
 20 21  3  0
 21 22  1  0
 22 23  2  0
 23 24  1  0
 24 25  2  0
 25 26  1  0
 26 27  2  0
 27 22  1  0
M  END
>  <Title>  (668) 
idAAXTgen14

$$$$

     RDKit          2D

 30 34  0  0  0  0  0  0  0  0999 V2000
   -3.4182    0.0420    0.0000 C   0  0  0  0  0  0  0  0  0  0  0  0
   -3.8817   -1.3846    0.0000 C   0  0  0  0  0  0  0  0  0  0  0  0
   -5.3083   -1.8481    0.0000 C   0  0  0  0  0  0  0  0  0  0  0  0
   -5.3083   -3.3481    0.0000 C   0  0  0  0  0  0  0  0  0  0  0  0
   -3.8817   -3.8116    0.0000 C   0  0  0  0  0  0  0  0  0  0  0  0
   -3.0000   -2.5981    0.0000 N   0  0  0  0  0  0  0  0  0  0  0  0
   -1.5000   -2.5981    0.0000 C   0  0  0  0  0  0  0  0  0  0  0  0
   -0.7500   -3.8971    0.0000 C   0  0  0  0  0  0  0  0  0  0  0  0
    0.7500   -3.8971    0.0000 C   0  0  0  0  0  0  0  0  0  0  0  0
    1.5000   -2.5981    0.0000 C   0  0  0  0  0  0  0  0  0  0  0  0
    3.0000   -2.5981    0.0000 N   0  0  0  0  0  0  0  0  0  0  0  0
    4.0607   -3.6587    0.0000 C   0  0  0  0  0  0  0  0  0  0  0  0
    5.1213   -2.5981    0.0000 C   0  0  0  0  0  0  0  0  0  0  0  0
    6.6213   -2.5981    0.0000 C   0  0  0  0  0  0  0  0  0  0  0  0
    7.3713   -1.2990    0.0000 O   0  0  0  0  0  0  0  0  0  0  0  0
    7.3713   -3.8971    0.0000 N   0  0  0  0  0  0  0  0  0  0  0  0
    8.8713   -3.8971    0.0000 C   0  0  0  0  0  0  0  0  0  0  0  0
    9.6213   -5.1962    0.0000 N   0  0  0  0  0  0  0  0  0  0  0  0
   11.1213   -5.1962    0.0000 N   0  0  0  0  0  0  0  0  0  0  0  0
   11.8713   -3.8971    0.0000 N   0  0  0  0  0  0  0  0  0  0  0  0
   11.1213   -2.5981    0.0000 N   0  0  0  0  0  0  0  0  0  0  0  0
    9.6213   -2.5981    0.0000 N   0  0  0  0  0  0  0  0  0  0  0  0
    4.0607   -1.5374    0.0000 C   0  0  0  0  0  0  0  0  0  0  0  0
    4.0607   -0.0374    0.0000 O   0  0  0  0  0  0  0  0  0  0  0  0
    0.7500   -1.2990    0.0000 C   0  0  0  0  0  0  0  0  0  0  0  0
    1.5000    0.0000    0.0000 C   0  0  0  0  0  0  0  0  0  0  0  0
    0.7500    1.2990    0.0000 C   0  0  0  0  0  0  0  0  0  0  0  0
   -0.7500    1.2990    0.0000 C   0  0  0  0  0  0  0  0  0  0  0  0
   -1.5000    0.0000    0.0000 C   0  0  0  0  0  0  0  0  0  0  0  0
   -0.7500   -1.2990    0.0000 C   0  0  0  0  0  0  0  0  0  0  0  0
  1  2  1  0
  2  3  2  0
  3  4  1  0
  4  5  2  0
  5  6  1  0
  6  7  1  0
  7  8  2  0
  8  9  1  0
  9 10  2  0
 10 11  1  0
 11 12  1  0
 12 13  2  0
 13 14  1  0
 14 15  2  0
 14 16  1  0
 16 17  1  0
 17 18  2  0
 18 19  1  0
 19 20  2  0
 20 21  1  0
 21 22  2  0
 13 23  1  0
 23 24  2  0
 10 25  1  0
 25 26  2  0
 26 27  1  0
 27 28  2  0
 28 29  1  0
 29 30  2  0
  6  2  1  0
 30  7  1  0
 23 11  1  0
 30 25  1  0
 22 17  1  0
M  END
>  <Title>  (669) 
idAAXUgen14

$$$$

     RDKit          2D

100101  0  0  0  0  0  0  0  0999 V2000
   -0.7011   -2.6998    0.0000 C   0  0  0  0  0  0  0  0  0  0  0  0
    0.4657   -3.6424    0.0000 C   0  0  0  0  0  0  0  0  0  0  0  0
   -0.4352   -4.8418    0.0000 C   0  0  0  0  0  0  0  0  0  0  0  0
   -1.2491   -6.1017    0.0000 C   0  0  0  0  0  0  0  0  0  0  0  0
   -1.9722   -7.4159    0.0000 C   0  0  0  0  0  0  0  0  0  0  0  0
   -2.6008   -8.7778    0.0000 C   0  0  0  0  0  0  0  0  0  0  0  0
   -3.1318  -10.1807    0.0000 C   0  0  0  0  0  0  0  0  0  0  0  0
   -3.5625  -11.6175    0.0000 C   0  0  0  0  0  0  0  0  0  0  0  0
   -3.8907  -13.0812    0.0000 C   0  0  0  0  0  0  0  0  0  0  0  0
   -4.1149  -14.5643    0.0000 C   0  0  0  0  0  0  0  0  0  0  0  0
   -4.2339  -16.0596    0.0000 C   0  0  0  0  0  0  0  0  0  0  0  0
   -4.2471  -17.5596    0.0000 C   0  0  0  0  0  0  0  0  0  0  0  0
   -4.1545  -19.0567    0.0000 C   0  0  0  0  0  0  0  0  0  0  0  0
   -3.9566  -20.5436    0.0000 C   0  0  0  0  0  0  0  0  0  0  0  0
   -3.6542  -22.0128    0.0000 C   0  0  0  0  0  0  0  0  0  0  0  0
   -3.2490  -23.4570    0.0000 C   0  0  0  0  0  0  0  0  0  0  0  0
   -2.7428  -24.8690    0.0000 C   0  0  0  0  0  0  0  0  0  0  0  0
   -2.1384  -26.2419    0.0000 C   0  0  0  0  0  0  0  0  0  0  0  0
   -1.4386  -27.5686    0.0000 C   0  0  0  0  0  0  0  0  0  0  0  0
   -0.6470  -28.8427    0.0000 C   0  0  0  0  0  0  0  0  0  0  0  0
    0.2326  -30.0578    0.0000 C   0  0  0  0  0  0  0  0  0  0  0  0
    1.1956  -31.2078    0.0000 C   0  0  0  0  0  0  0  0  0  0  0  0
    2.2374  -32.2870    0.0000 C   0  0  0  0  0  0  0  0  0  0  0  0
    3.3527  -33.2901    0.0000 C   0  0  0  0  0  0  0  0  0  0  0  0
    4.5360  -34.2119    0.0000 C   0  0  0  0  0  0  0  0  0  0  0  0
    5.7814  -35.0480    0.0000 C   0  0  0  0  0  0  0  0  0  0  0  0
    7.0826  -35.7942    0.0000 C   0  0  0  0  0  0  0  0  0  0  0  0
    8.4332  -36.4467    0.0000 C   0  0  0  0  0  0  0  0  0  0  0  0
    9.8265  -37.0024    0.0000 C   0  0  0  0  0  0  0  0  0  0  0  0
   11.2555  -37.4583    0.0000 C   0  0  0  0  0  0  0  0  0  0  0  0
   12.7132  -37.8124    0.0000 C   0  0  0  0  0  0  0  0  0  0  0  0
   14.1921  -38.0627    0.0000 C   0  0  0  0  0  0  0  0  0  0  0  0
   15.6851  -38.2081    0.0000 C   0  0  0  0  0  0  0  0  0  0  0  0
   17.1845  -38.2478    0.0000 C   0  0  0  0  0  0  0  0  0  0  0  0
   18.6831  -38.1816    0.0000 C   0  0  0  0  0  0  0  0  0  0  0  0
   20.1732  -38.0099    0.0000 C   0  0  0  0  0  0  0  0  0  0  0  0
   21.6475  -37.7335    0.0000 C   0  0  0  0  0  0  0  0  0  0  0  0
   23.0987  -37.3538    0.0000 C   0  0  0  0  0  0  0  0  0  0  0  0
   24.5194  -36.8727    0.0000 C   0  0  0  0  0  0  0  0  0  0  0  0
   25.9027  -36.2926    0.0000 C   0  0  0  0  0  0  0  0  0  0  0  0
   27.2416  -35.6163    0.0000 C   0  0  0  0  0  0  0  0  0  0  0  0
   28.5295  -34.8473    0.0000 C   0  0  0  0  0  0  0  0  0  0  0  0
   29.7599  -33.9893    0.0000 C   0  0  0  0  0  0  0  0  0  0  0  0
   30.9267  -33.0467    0.0000 C   0  0  0  0  0  0  0  0  0  0  0  0
   32.0242  -32.0242    0.0000 C   0  0  0  0  0  0  0  0  0  0  0  0
   33.0467  -30.9267    0.0000 C   0  0  0  0  0  0  0  0  0  0  0  0
   33.9893  -29.7599    0.0000 C   0  0  0  0  0  0  0  0  0  0  0  0
   34.8473  -28.5295    0.0000 C   0  0  0  0  0  0  0  0  0  0  0  0
   35.6163  -27.2416    0.0000 C   0  0  0  0  0  0  0  0  0  0  0  0
   36.2926  -25.9027    0.0000 C   0  0  0  0  0  0  0  0  0  0  0  0
   36.8727  -24.5194    0.0000 C   0  0  0  0  0  0  0  0  0  0  0  0
   37.3538  -23.0987    0.0000 C   0  0  0  0  0  0  0  0  0  0  0  0
   37.7335  -21.6475    0.0000 C   0  0  0  0  0  0  0  0  0  0  0  0
   38.0099  -20.1732    0.0000 C   0  0  0  0  0  0  0  0  0  0  0  0
   38.1816  -18.6831    0.0000 C   0  0  0  0  0  0  0  0  0  0  0  0
   38.2478  -17.1845    0.0000 C   0  0  0  0  0  0  0  0  0  0  0  0
   38.2081  -15.6851    0.0000 C   0  0  0  0  0  0  0  0  0  0  0  0
   38.0627  -14.1921    0.0000 C   0  0  0  0  0  0  0  0  0  0  0  0
   37.8124  -12.7132    0.0000 C   0  0  0  0  0  0  0  0  0  0  0  0
   37.4583  -11.2555    0.0000 C   0  0  0  0  0  0  0  0  0  0  0  0
   37.0024   -9.8265    0.0000 C   0  0  0  0  0  0  0  0  0  0  0  0
   36.4467   -8.4332    0.0000 C   0  0  0  0  0  0  0  0  0  0  0  0
   35.7942   -7.0826    0.0000 C   0  0  0  0  0  0  0  0  0  0  0  0
   35.0480   -5.7814    0.0000 C   0  0  0  0  0  0  0  0  0  0  0  0
   34.2119   -4.5360    0.0000 C   0  0  0  0  0  0  0  0  0  0  0  0
   33.2901   -3.3527    0.0000 C   0  0  0  0  0  0  0  0  0  0  0  0
   32.2870   -2.2374    0.0000 C   0  0  0  0  0  0  0  0  0  0  0  0
   31.2078   -1.1956    0.0000 C   0  0  0  0  0  0  0  0  0  0  0  0
   30.0578   -0.2326    0.0000 C   0  0  0  0  0  0  0  0  0  0  0  0
   28.8427    0.6470    0.0000 C   0  0  0  0  0  0  0  0  0  0  0  0
   27.5686    1.4386    0.0000 C   0  0  0  0  0  0  0  0  0  0  0  0
   26.2419    2.1384    0.0000 C   0  0  0  0  0  0  0  0  0  0  0  0
   24.8690    2.7428    0.0000 C   0  0  0  0  0  0  0  0  0  0  0  0
   23.4570    3.2490    0.0000 C   0  0  0  0  0  0  0  0  0  0  0  0
   22.0128    3.6542    0.0000 C   0  0  0  0  0  0  0  0  0  0  0  0
   20.5436    3.9566    0.0000 C   0  0  0  0  0  0  0  0  0  0  0  0
   19.0567    4.1545    0.0000 C   0  0  0  0  0  0  0  0  0  0  0  0
   17.5596    4.2471    0.0000 C   0  0  0  0  0  0  0  0  0  0  0  0
   16.0596    4.2339    0.0000 C   0  0  0  0  0  0  0  0  0  0  0  0
   14.5643    4.1149    0.0000 C   0  0  0  0  0  0  0  0  0  0  0  0
   13.0812    3.8907    0.0000 C   0  0  0  0  0  0  0  0  0  0  0  0
   11.6175    3.5625    0.0000 C   0  0  0  0  0  0  0  0  0  0  0  0
   10.1807    3.1318    0.0000 C   0  0  0  0  0  0  0  0  0  0  0  0
    8.7778    2.6008    0.0000 C   0  0  0  0  0  0  0  0  0  0  0  0
    7.4159    1.9722    0.0000 C   0  0  0  0  0  0  0  0  0  0  0  0
    6.1017    1.2491    0.0000 C   0  0  0  0  0  0  0  0  0  0  0  0
    4.8418    0.4352    0.0000 C   0  0  0  0  0  0  0  0  0  0  0  0
    3.6424   -0.4657    0.0000 C   0  0  0  0  0  0  0  0  0  0  0  0
    2.5095   -1.4489    0.0000 C   0  0  0  0  0  0  0  0  0  0  0  0
    2.8978    0.0000    0.0000 C   0  0  0  0  0  0  0  0  0  0  0  0
    2.5095    1.4489    0.0000 C   0  0  0  0  0  0  0  0  0  0  0  0
    1.4489    2.5095    0.0000 C   0  0  0  0  0  0  0  0  0  0  0  0
    0.0000    2.8978    0.0000 C   0  0  0  0  0  0  0  0  0  0  0  0
   -1.4489    2.5095    0.0000 C   0  0  0  0  0  0  0  0  0  0  0  0
   -2.5095    1.4489    0.0000 C   0  0  0  0  0  0  0  0  0  0  0  0
   -2.8978    0.0000    0.0000 C   0  0  0  0  0  0  0  0  0  0  0  0
   -2.5095   -1.4489    0.0000 C   0  0  0  0  0  0  0  0  0  0  0  0
   -1.4489   -2.5095    0.0000 C   0  0  0  0  0  0  0  0  0  0  0  0
   -0.0000   -2.8978    0.0000 C   0  0  0  0  0  0  0  0  0  0  0  0
    1.4489   -2.5095    0.0000 C   0  0  0  0  0  0  0  0  0  0  0  0
  1  2  1  0
  2  3  1  0
  3  4  1  0
  4  5  1  0
  5  6  1  0
  6  7  1  0
  7  8  1  0
  8  9  1  0
  9 10  1  0
 10 11  1  0
 11 12  1  0
 12 13  1  0
 13 14  1  0
 14 15  1  0
 15 16  1  0
 16 17  1  0
 17 18  1  0
 18 19  1  0
 19 20  1  0
 20 21  1  0
 21 22  1  0
 22 23  1  0
 23 24  1  0
 24 25  1  0
 25 26  1  0
 26 27  1  0
 27 28  1  0
 28 29  1  0
 29 30  1  0
 30 31  1  0
 31 32  1  0
 32 33  1  0
 33 34  1  0
 34 35  1  0
 35 36  1  0
 36 37  1  0
 37 38  1  0
 38 39  1  0
 39 40  1  0
 40 41  1  0
 41 42  1  0
 42 43  1  0
 43 44  1  0
 44 45  1  0
 45 46  1  0
 46 47  1  0
 47 48  1  0
 48 49  1  0
 49 50  1  0
 50 51  1  0
 51 52  1  0
 52 53  1  0
 53 54  1  0
 54 55  1  0
 55 56  1  0
 56 57  1  0
 57 58  1  0
 58 59  1  0
 59 60  1  0
 60 61  1  0
 61 62  1  0
 62 63  1  0
 63 64  1  0
 64 65  1  0
 65 66  1  0
 66 67  1  0
 67 68  1  0
 68 69  1  0
 69 70  1  0
 70 71  1  0
 71 72  1  0
 72 73  1  0
 73 74  1  0
 74 75  1  0
 75 76  1  0
 76 77  1  0
 77 78  1  0
 78 79  1  0
 79 80  1  0
 80 81  1  0
 81 82  1  0
 82 83  1  0
 83 84  1  0
 84 85  1  0
 85 86  1  0
 86 87  1  0
 87 88  1  0
 88 89  1  0
 89 90  1  0
 90 91  1  0
 91 92  1  0
 92 93  1  0
 93 94  1  0
 94 95  1  0
 95 96  2  0
 96 97  1  0
 97 98  2  0
 98 99  1  0
 99100  2  0
100  2  1  0
100 89  1  0
M  END
>  <Title>  (670) 
idAAXVgen14

$$$$

     RDKit          2D

 12 12  0  0  0  0  0  0  0  0999 V2000
    6.0000   -2.5981    0.0000 C   0  0  0  0  0  0  0  0  0  0  0  0
    5.2500   -1.2990    0.0000 C   0  0  0  0  0  0  0  0  0  0  0  0
    6.0000    0.0000    0.0000 O   0  0  0  0  0  0  0  0  0  0  0  0
    3.7500   -1.2990    0.0000 N   0  0  0  0  0  0  0  0  0  0  0  0
    3.0000    0.0000    0.0000 C   0  0  0  0  0  0  0  0  0  0  0  0
    1.5000    0.0000    0.0000 C   0  0  0  0  0  0  0  0  0  0  0  0
    0.7500   -1.2990    0.0000 C   0  0  0  0  0  0  0  0  0  0  0  0
   -0.7500   -1.2990    0.0000 C   0  0  0  0  0  0  0  0  0  0  0  0
   -1.5000    0.0000    0.0000 C   0  0  0  0  0  0  0  0  0  0  0  0
   -3.0000    0.0000    0.0000 F   0  0  0  0  0  0  0  0  0  0  0  0
   -0.7500    1.2990    0.0000 C   0  0  0  0  0  0  0  0  0  0  0  0
    0.7500    1.2990    0.0000 C   0  0  0  0  0  0  0  0  0  0  0  0
  1  2  1  0
  2  3  2  0
  2  4  1  0
  4  5  1  0
  5  6  1  0
  6  7  2  0
  7  8  1  0
  8  9  2  0
  9 10  1  0
  9 11  1  0
 11 12  2  0
 12  6  1  0
M  END
>  <Title>  (671) 
idAAXWgen14

$$$$

     RDKit          2D

 13 14  0  0  0  0  0  0  0  0999 V2000
    3.0000    0.0000    0.0000 C   0  0  0  0  0  0  0  0  0  0  0  0
    1.5000    0.0000    0.0000 C   0  0  0  0  0  0  0  0  0  0  0  0
    0.7500   -1.2990    0.0000 C   0  0  0  0  0  0  0  0  0  0  0  0
   -0.7500   -1.2990    0.0000 C   0  0  0  0  0  0  0  0  0  0  0  0
   -1.5000    0.0000    0.0000 C   0  0  0  0  0  0  0  0  0  0  0  0
   -3.0000    0.0000    0.0000 N   0  0  0  0  0  0  0  0  0  0  0  0
   -3.7500    1.2990    0.0000 C   0  0  0  0  0  0  0  0  0  0  0  0
   -5.2500    1.2990    0.0000 C   0  0  0  0  0  0  0  0  0  0  0  0
   -6.0000    0.0000    0.0000 C   0  0  0  0  0  0  0  0  0  0  0  0
   -5.2500   -1.2990    0.0000 N   0  0  0  0  0  0  0  0  0  0  0  0
   -3.7500   -1.2990    0.0000 N   0  0  0  0  0  0  0  0  0  0  0  0
   -0.7500    1.2990    0.0000 C   0  0  0  0  0  0  0  0  0  0  0  0
    0.7500    1.2990    0.0000 C   0  0  0  0  0  0  0  0  0  0  0  0
  1  2  1  0
  2  3  2  0
  3  4  1  0
  4  5  1  0
  5  6  1  0
  6  7  1  0
  7  8  1  0
  8  9  2  0
  9 10  1  0
 10 11  2  0
  5 12  1  0
 12 13  2  0
 13  2  1  0
 11  6  1  0
M  END
>  <Title>  (672) 
idAAXXgen14

$$$$

     RDKit          2D

 35 39  0  0  0  0  0  0  0  0999 V2000
    8.2500    3.8971    0.0000 C   0  0  0  0  0  0  0  0  0  0  0  0
    7.5000    2.5981    0.0000 C   0  0  0  0  0  0  0  0  0  0  0  0
    8.2500    1.2990    0.0000 C   0  0  0  0  0  0  0  0  0  0  0  0
    7.5000    0.0000    0.0000 C   0  0  0  0  0  0  0  0  0  0  0  0
    6.0000    0.0000    0.0000 C   0  0  0  0  0  0  0  0  0  0  0  0
    5.2500   -1.2990    0.0000 O   0  0  0  0  0  0  0  0  0  0  0  0
    6.0000   -2.5981    0.0000 C   0  0  0  0  0  0  0  0  0  0  0  0
    7.5000   -2.5981    0.0000 O   0  0  0  0  0  0  0  0  0  0  0  0
    5.2500   -3.8971    0.0000 N   0  0  0  0  0  0  0  0  0  0  0  0
    6.0000   -5.1962    0.0000 C   0  0  0  0  0  0  0  0  0  0  0  0
    7.4918   -5.3529    0.0000 N   0  0  0  0  0  0  0  0  0  0  0  0
    7.8037   -6.8202    0.0000 N   0  0  0  0  0  0  0  0  0  0  0  0
    6.5046   -7.5702    0.0000 N   0  0  0  0  0  0  0  0  0  0  0  0
    5.3899   -6.5665    0.0000 N   0  0  0  0  0  0  0  0  0  0  0  0
    3.9227   -6.8783    0.0000 N   0  0  0  0  0  0  0  0  0  0  0  0
    2.8080   -5.8746    0.0000 C   0  0  0  0  0  0  0  0  0  0  0  0
    1.5089   -6.6246    0.0000 C   0  0  0  0  0  0  0  0  0  0  0  0
    1.8208   -8.0919    0.0000 N   0  0  0  0  0  0  0  0  0  0  0  0
    0.8171   -9.2066    0.0000 C   0  0  0  0  0  0  0  0  0  0  0  0
    1.2806  -10.6332    0.0000 O   0  0  0  0  0  0  0  0  0  0  0  0
   -0.6501   -8.8947    0.0000 N   0  0  0  0  0  0  0  0  0  0  0  0
   -1.6538  -10.0094    0.0000 C   0  0  0  0  0  0  0  0  0  0  0  0
   -1.1903  -11.4360    0.0000 N   0  0  0  0  0  0  0  0  0  0  0  0
   -2.1940  -12.5507    0.0000 N   0  0  0  0  0  0  0  0  0  0  0  0
   -3.6612  -12.2389    0.0000 N   0  0  0  0  0  0  0  0  0  0  0  0
   -4.1247  -10.8123    0.0000 N   0  0  0  0  0  0  0  0  0  0  0  0
   -3.1210   -9.6976    0.0000 N   0  0  0  0  0  0  0  0  0  0  0  0
    3.3126   -8.2487    0.0000 C   0  0  0  0  0  0  0  0  0  0  0  0
    4.0626   -9.5477    0.0000 O   0  0  0  0  0  0  0  0  0  0  0  0
    5.2500    1.2990    0.0000 C   0  0  0  0  0  0  0  0  0  0  0  0
    3.7500    1.2990    0.0000 C   0  0  0  0  0  0  0  0  0  0  0  0
    3.0000    2.5981    0.0000 C   0  0  0  0  0  0  0  0  0  0  0  0
    3.7500    3.8971    0.0000 C   0  0  0  0  0  0  0  0  0  0  0  0
    5.2500    3.8971    0.0000 C   0  0  0  0  0  0  0  0  0  0  0  0
    6.0000    2.5981    0.0000 C   0  0  0  0  0  0  0  0  0  0  0  0
  1  2  1  0
  2  3  2  0
  3  4  1  0
  4  5  2  0
  5  6  1  0
  6  7  1  0
  7  8  2  0
  7  9  1  0
  9 10  1  0
 10 11  2  0
 11 12  1  0
 12 13  2  0
 13 14  1  0
 14 15  1  0
 15 16  1  0
 16 17  1  0
 17 18  1  0
 18 19  1  0
 19 20  2  0
 19 21  1  0
 21 22  1  0
 22 23  2  0
 23 24  1  0
 24 25  2  0
 25 26  1  0
 26 27  2  0
 18 28  1  0
 28 29  2  0
  5 30  1  0
 30 31  2  0
 31 32  1  0
 32 33  2  0
 33 34  1  0
 34 35  2  0
 35  2  1  0
 14 10  1  0
 28 15  1  0
 35 30  1  0
 27 22  1  0
M  END
>  <Title>  (673) 
idAAXYgen14

$$$$

     RDKit          2D

 43 47  0  0  0  0  0  0  0  0999 V2000
   -5.2500   -9.0933    0.0000 C   0  0  0  0  0  0  0  0  0  0  0  0
   -6.0000   -7.7942    0.0000 C   0  0  0  0  0  0  0  0  0  0  0  0
   -7.5000   -7.7942    0.0000 C   0  0  0  0  0  0  0  0  0  0  0  0
   -5.2500   -6.4952    0.0000 C   0  0  0  0  0  0  0  0  0  0  0  0
   -6.0000   -5.1962    0.0000 C   0  0  0  0  0  0  0  0  0  0  0  0
   -7.5000   -5.1962    0.0000 C   0  0  0  0  0  0  0  0  0  0  0  0
   -5.2500   -3.8971    0.0000 N   0  0  0  0  0  0  0  0  0  0  0  0
   -3.7500   -3.8971    0.0000 C   0  0  0  0  0  0  0  0  0  0  0  0
   -3.0000   -5.1962    0.0000 O   0  0  0  0  0  0  0  0  0  0  0  0
   -3.0000   -2.5981    0.0000 C   0  0  0  0  0  0  0  0  0  0  0  0
   -1.5000   -2.5981    0.0000 C   0  0  0  0  0  0  0  0  0  0  0  0
   -0.7500   -3.8971    0.0000 C   0  0  0  0  0  0  0  0  0  0  0  0
    0.7500   -3.8971    0.0000 C   0  0  0  0  0  0  0  0  0  0  0  0
    1.5000   -2.5981    0.0000 C   0  0  0  0  0  0  0  0  0  0  0  0
    3.0000   -2.5981    0.0000 C   0  0  0  0  0  0  0  0  0  0  0  0
    3.7500   -1.2990    0.0000 O   0  0  0  0  0  0  0  0  0  0  0  0
    3.7500   -3.8971    0.0000 N   0  0  0  0  0  0  0  0  0  0  0  0
    5.2500   -3.8971    0.0000 C   0  0  0  0  0  0  0  0  0  0  0  0
    6.1317   -2.6836    0.0000 N   0  0  0  0  0  0  0  0  0  0  0  0
    7.5583   -3.1471    0.0000 N   0  0  0  0  0  0  0  0  0  0  0  0
    7.5583   -4.6471    0.0000 N   0  0  0  0  0  0  0  0  0  0  0  0
    6.1317   -5.1106    0.0000 N   0  0  0  0  0  0  0  0  0  0  0  0
    5.6682   -6.5372    0.0000 N   0  0  0  0  0  0  0  0  0  0  0  0
    6.5498   -7.7508    0.0000 C   0  0  0  0  0  0  0  0  0  0  0  0
    5.6682   -8.9643    0.0000 C   0  0  0  0  0  0  0  0  0  0  0  0
    4.2416   -8.5008    0.0000 N   0  0  0  0  0  0  0  0  0  0  0  0
    3.0280   -9.3824    0.0000 C   0  0  0  0  0  0  0  0  0  0  0  0
    3.1848  -10.8742    0.0000 O   0  0  0  0  0  0  0  0  0  0  0  0
    1.6577   -8.7723    0.0000 N   0  0  0  0  0  0  0  0  0  0  0  0
    0.4442   -9.6540    0.0000 C   0  0  0  0  0  0  0  0  0  0  0  0
   -0.9261   -9.0439    0.0000 N   0  0  0  0  0  0  0  0  0  0  0  0
   -2.1396   -9.9256    0.0000 N   0  0  0  0  0  0  0  0  0  0  0  0
   -1.9829  -11.4174    0.0000 N   0  0  0  0  0  0  0  0  0  0  0  0
   -0.6125  -12.0275    0.0000 N   0  0  0  0  0  0  0  0  0  0  0  0
    0.6010  -11.1458    0.0000 N   0  0  0  0  0  0  0  0  0  0  0  0
    4.2416   -7.0008    0.0000 C   0  0  0  0  0  0  0  0  0  0  0  0
    3.0280   -6.1191    0.0000 O   0  0  0  0  0  0  0  0  0  0  0  0
    0.7500   -1.2990    0.0000 C   0  0  0  0  0  0  0  0  0  0  0  0
    1.5000    0.0000    0.0000 C   0  0  0  0  0  0  0  0  0  0  0  0
    0.7500    1.2990    0.0000 C   0  0  0  0  0  0  0  0  0  0  0  0
   -0.7500    1.2990    0.0000 C   0  0  0  0  0  0  0  0  0  0  0  0
   -1.5000    0.0000    0.0000 C   0  0  0  0  0  0  0  0  0  0  0  0
   -0.7500   -1.2990    0.0000 C   0  0  0  0  0  0  0  0  0  0  0  0
  1  2  1  0
  2  3  1  0
  2  4  1  0
  4  5  1  0
  5  6  1  0
  5  7  1  0
  7  8  1  0
  8  9  2  0
  8 10  1  0
 10 11  1  0
 11 12  2  0
 12 13  1  0
 13 14  2  0
 14 15  1  0
 15 16  2  0
 15 17  1  0
 17 18  1  0
 18 19  2  0
 19 20  1  0
 20 21  2  0
 21 22  1  0
 22 23  1  0
 23 24  1  0
 24 25  1  0
 25 26  1  0
 26 27  1  0
 27 28  2  0
 27 29  1  0
 29 30  1  0
 30 31  2  0
 31 32  1  0
 32 33  2  0
 33 34  1  0
 34 35  2  0
 26 36  1  0
 36 37  2  0
 14 38  1  0
 38 39  2  0
 39 40  1  0
 40 41  2  0
 41 42  1  0
 42 43  2  0
 43 11  1  0
 22 18  1  0
 36 23  1  0
 43 38  1  0
 35 30  1  0
M  END
>  <Title>  (674) 
idAAXZgen14

$$$$

     RDKit          2D

 13 13  0  0  0  0  0  0  0  0999 V2000
    8.2500   -3.8971    0.0000 C   0  0  0  0  0  0  0  0  0  0  0  0
    7.5000   -2.5981    0.0000 C   0  0  0  0  0  0  0  0  0  0  0  0
    6.0000   -2.5981    0.0000 C   0  0  0  0  0  0  0  0  0  0  0  0
    5.2500   -3.8971    0.0000 O   0  0  0  0  0  0  0  0  0  0  0  0
    5.2500   -1.2990    0.0000 N   0  0  0  0  0  0  0  0  0  0  0  0
    3.7500   -1.2990    0.0000 C   0  0  0  0  0  0  0  0  0  0  0  0
    3.0000    0.0000    0.0000 C   0  0  0  0  0  0  0  0  0  0  0  0
    1.5000    0.0000    0.0000 C   0  0  0  0  0  0  0  0  0  0  0  0
    0.7500   -1.2990    0.0000 C   0  0  0  0  0  0  0  0  0  0  0  0
   -0.7500   -1.2990    0.0000 C   0  0  0  0  0  0  0  0  0  0  0  0
   -1.5000    0.0000    0.0000 C   0  0  0  0  0  0  0  0  0  0  0  0
   -0.7500    1.2990    0.0000 N   0  0  0  0  0  0  0  0  0  0  0  0
    0.7500    1.2990    0.0000 C   0  0  0  0  0  0  0  0  0  0  0  0
  1  2  1  0
  2  3  1  0
  3  4  2  0
  3  5  1  0
  5  6  1  0
  6  7  1  0
  7  8  1  0
  8  9  2  0
  9 10  1  0
 10 11  2  0
 11 12  1  0
 12 13  2  0
 13  8  1  0
M  END
>  <Title>  (675) 
idAAYAgen14

$$$$

     RDKit          2D

 12 11  0  0  0  0  0  0  0  0999 V2000
    0.0000    0.0000    0.0000 C   0  0  0  0  0  0  0  0  0  0  0  0
    1.2990    0.7500    0.0000 C   0  0  0  0  0  0  0  0  0  0  0  0
    2.5981   -0.0000    0.0000 C   0  0  0  0  0  0  0  0  0  0  0  0
    3.8971    0.7500    0.0000 C   0  0  0  0  0  0  0  0  0  0  0  0
    5.1962   -0.0000    0.0000 C   0  0  0  0  0  0  0  0  0  0  0  0
    6.4952    0.7500    0.0000 C   0  0  0  0  0  0  0  0  0  0  0  0
    7.7942   -0.0000    0.0000 C   0  0  0  0  0  0  0  0  0  0  0  0
    9.0933    0.7500    0.0000 C   0  0  0  0  0  0  0  0  0  0  0  0
    7.7942   -1.5000    0.0000 N   0  0  0  0  0  0  0  0  0  0  0  0
    9.0933   -2.2500    0.0000 C   0  0  0  0  0  0  0  0  0  0  0  0
    9.0933   -3.7500    0.0000 C   0  0  0  0  0  0  0  0  0  0  0  0
   10.3923   -1.5000    0.0000 O   0  0  0  0  0  0  0  0  0  0  0  0
  1  2  1  0
  2  3  1  0
  3  4  2  3
  4  5  1  0
  5  6  1  0
  6  7  1  0
  7  8  1  0
  7  9  1  0
  9 10  1  0
 10 11  1  0
 10 12  2  0
M  END
>  <Title>  (676) 
idAAYBgen14

$$$$

     RDKit          2D

 33 37  0  0  0  0  0  0  0  0999 V2000
   -2.6401   -3.1891    0.0000 C   0  0  0  0  0  0  0  0  0  0  0  0
   -1.2135   -2.7256    0.0000 C   0  0  0  0  0  0  0  0  0  0  0  0
   -0.0000   -3.6073    0.0000 N   0  0  0  0  0  0  0  0  0  0  0  0
    1.2135   -2.7256    0.0000 N   0  0  0  0  0  0  0  0  0  0  0  0
    2.6401   -3.1891    0.0000 C   0  0  0  0  0  0  0  0  0  0  0  0
    3.7548   -2.1855    0.0000 O   0  0  0  0  0  0  0  0  0  0  0  0
    2.9520   -4.6564    0.0000 N   0  0  0  0  0  0  0  0  0  0  0  0
    4.3786   -5.1199    0.0000 C   0  0  0  0  0  0  0  0  0  0  0  0
    5.5921   -4.2382    0.0000 N   0  0  0  0  0  0  0  0  0  0  0  0
    6.8056   -5.1199    0.0000 N   0  0  0  0  0  0  0  0  0  0  0  0
    6.3421   -6.5465    0.0000 N   0  0  0  0  0  0  0  0  0  0  0  0
    4.8421   -6.5465    0.0000 N   0  0  0  0  0  0  0  0  0  0  0  0
    3.9604   -7.7600    0.0000 C   0  0  0  0  0  0  0  0  0  0  0  0
    4.4239   -9.1866    0.0000 C   0  0  0  0  0  0  0  0  0  0  0  0
    3.2104  -10.0683    0.0000 C   0  0  0  0  0  0  0  0  0  0  0  0
    1.9969   -9.1866    0.0000 C   0  0  0  0  0  0  0  0  0  0  0  0
    0.5703   -9.6501    0.0000 C   0  0  0  0  0  0  0  0  0  0  0  0
    0.2584  -11.1173    0.0000 O   0  0  0  0  0  0  0  0  0  0  0  0
   -0.5444   -8.6464    0.0000 N   0  0  0  0  0  0  0  0  0  0  0  0
   -1.9710   -9.1099    0.0000 C   0  0  0  0  0  0  0  0  0  0  0  0
   -3.0857   -8.1062    0.0000 N   0  0  0  0  0  0  0  0  0  0  0  0
   -4.5123   -8.5698    0.0000 N   0  0  0  0  0  0  0  0  0  0  0  0
   -4.8242  -10.0370    0.0000 N   0  0  0  0  0  0  0  0  0  0  0  0
   -3.7095  -11.0407    0.0000 N   0  0  0  0  0  0  0  0  0  0  0  0
   -2.2829  -10.5772    0.0000 N   0  0  0  0  0  0  0  0  0  0  0  0
    2.4604   -7.7600    0.0000 C   0  0  0  0  0  0  0  0  0  0  0  0
    1.5787   -6.5465    0.0000 O   0  0  0  0  0  0  0  0  0  0  0  0
    0.7500   -1.2990    0.0000 C   0  0  0  0  0  0  0  0  0  0  0  0
    1.5000    0.0000    0.0000 C   0  0  0  0  0  0  0  0  0  0  0  0
    0.7500    1.2990    0.0000 C   0  0  0  0  0  0  0  0  0  0  0  0
   -0.7500    1.2990    0.0000 C   0  0  0  0  0  0  0  0  0  0  0  0
   -1.5000    0.0000    0.0000 C   0  0  0  0  0  0  0  0  0  0  0  0
   -0.7500   -1.2990    0.0000 C   0  0  0  0  0  0  0  0  0  0  0  0
  1  2  1  0
  2  3  2  0
  3  4  1  0
  4  5  1  0
  5  6  2  0
  5  7  1  0
  7  8  1  0
  8  9  2  0
  9 10  1  0
 10 11  2  0
 11 12  1  0
 12 13  1  0
 13 14  2  0
 14 15  1  0
 15 16  2  0
 16 17  1  0
 17 18  2  0
 17 19  1  0
 19 20  1  0
 20 21  2  0
 21 22  1  0
 22 23  2  0
 23 24  1  0
 24 25  2  0
 16 26  1  0
 26 27  2  0
  4 28  1  0
 28 29  2  0
 29 30  1  0
 30 31  2  0
 31 32  1  0
 32 33  2  0
 33  2  1  0
 12  8  1  0
 26 13  1  0
 33 28  1  0
 25 20  1  0
M  END
>  <Title>  (677) 
idAAYCgen14

$$$$

     RDKit          2D

  8  8  0  0  0  0  0  0  0  0999 V2000
    3.0000    0.0000    0.0000 C   0  0  0  0  0  0  0  0  0  0  0  0
    1.5000    0.0000    0.0000 C   0  0  0  0  0  0  0  0  0  0  0  0
    0.7500   -1.2990    0.0000 C   0  0  0  0  0  0  0  0  0  0  0  0
   -0.7500   -1.2990    0.0000 C   0  0  0  0  0  0  0  0  0  0  0  0
   -1.5000    0.0000    0.0000 C   0  0  0  0  0  0  0  0  0  0  0  0
   -3.0000    0.0000    0.0000 O   0  0  0  0  0  0  0  0  0  0  0  0
   -0.7500    1.2990    0.0000 C   0  0  0  0  0  0  0  0  0  0  0  0
    0.7500    1.2990    0.0000 C   0  0  0  0  0  0  0  0  0  0  0  0
  1  2  1  0
  2  3  2  0
  3  4  1  0
  4  5  1  0
  5  6  1  0
  5  7  1  0
  7  8  2  0
  8  2  1  0
M  END
>  <Title>  (678) 
idAAYDgen14

$$$$

     RDKit          2D

 37 41  0  0  0  0  0  0  0  0999 V2000
   -3.1981   -1.5132    0.0000 C   0  0  0  0  0  0  0  0  0  0  0  0
   -1.8991   -2.2632    0.0000 C   0  0  0  0  0  0  0  0  0  0  0  0
   -2.1595   -3.7404    0.0000 C   0  0  0  0  0  0  0  0  0  0  0  0
   -1.4095   -5.0395    0.0000 C   0  0  0  0  0  0  0  0  0  0  0  0
   -0.0000   -5.5525    0.0000 C   0  0  0  0  0  0  0  0  0  0  0  0
    1.4095   -5.0395    0.0000 C   0  0  0  0  0  0  0  0  0  0  0  0
    2.1595   -3.7404    0.0000 C   0  0  0  0  0  0  0  0  0  0  0  0
    1.8991   -2.2632    0.0000 C   0  0  0  0  0  0  0  0  0  0  0  0
    3.1981   -1.5132    0.0000 C   0  0  0  0  0  0  0  0  0  0  0  0
    3.1981   -0.0132    0.0000 O   0  0  0  0  0  0  0  0  0  0  0  0
    4.4971   -2.2632    0.0000 N   0  0  0  0  0  0  0  0  0  0  0  0
    5.7962   -1.5132    0.0000 C   0  0  0  0  0  0  0  0  0  0  0  0
    5.9530   -0.0214    0.0000 N   0  0  0  0  0  0  0  0  0  0  0  0
    7.4202    0.2904    0.0000 N   0  0  0  0  0  0  0  0  0  0  0  0
    8.1702   -1.0086    0.0000 N   0  0  0  0  0  0  0  0  0  0  0  0
    7.1665   -2.1233    0.0000 N   0  0  0  0  0  0  0  0  0  0  0  0
    7.4784   -3.5905    0.0000 N   0  0  0  0  0  0  0  0  0  0  0  0
    8.8487   -4.2007    0.0000 C   0  0  0  0  0  0  0  0  0  0  0  0
    8.6919   -5.6924    0.0000 C   0  0  0  0  0  0  0  0  0  0  0  0
    7.2247   -6.0043    0.0000 C   0  0  0  0  0  0  0  0  0  0  0  0
    6.6146   -7.3746    0.0000 C   0  0  0  0  0  0  0  0  0  0  0  0
    7.4962   -8.5881    0.0000 O   0  0  0  0  0  0  0  0  0  0  0  0
    5.1228   -7.5314    0.0000 N   0  0  0  0  0  0  0  0  0  0  0  0
    4.5127   -8.9017    0.0000 C   0  0  0  0  0  0  0  0  0  0  0  0
    3.0209   -9.0585    0.0000 N   0  0  0  0  0  0  0  0  0  0  0  0
    2.4108  -10.4288    0.0000 N   0  0  0  0  0  0  0  0  0  0  0  0
    3.2925  -11.6424    0.0000 N   0  0  0  0  0  0  0  0  0  0  0  0
    4.7843  -11.4856    0.0000 N   0  0  0  0  0  0  0  0  0  0  0  0
    5.3944  -10.1153    0.0000 N   0  0  0  0  0  0  0  0  0  0  0  0
    6.4747   -4.7053    0.0000 C   0  0  0  0  0  0  0  0  0  0  0  0
    4.9829   -4.5485    0.0000 O   0  0  0  0  0  0  0  0  0  0  0  0
    0.7500   -1.2990    0.0000 C   0  0  0  0  0  0  0  0  0  0  0  0
    1.5000    0.0000    0.0000 C   0  0  0  0  0  0  0  0  0  0  0  0
    0.7500    1.2990    0.0000 C   0  0  0  0  0  0  0  0  0  0  0  0
   -0.7500    1.2990    0.0000 C   0  0  0  0  0  0  0  0  0  0  0  0
   -1.5000    0.0000    0.0000 C   0  0  0  0  0  0  0  0  0  0  0  0
   -0.7500   -1.2990    0.0000 C   0  0  0  0  0  0  0  0  0  0  0  0
  1  2  1  0
  2  3  1  0
  3  4  1  0
  4  5  1  0
  5  6  1  0
  6  7  1  0
  7  8  1  0
  8  9  1  0
  9 10  2  0
  9 11  1  0
 11 12  1  0
 12 13  2  0
 13 14  1  0
 14 15  2  0
 15 16  1  0
 16 17  1  0
 17 18  1  0
 18 19  1  0
 19 20  1  0
 20 21  1  0
 21 22  2  0
 21 23  1  0
 23 24  1  0
 24 25  2  0
 25 26  1  0
 26 27  2  0
 27 28  1  0
 28 29  2  0
 20 30  1  0
 30 31  2  0
  8 32  1  0
 32 33  2  0
 33 34  1  0
 34 35  2  0
 35 36  1  0
 36 37  2  0
 37  2  1  0
 16 12  1  0
 30 17  1  0
 37 32  1  0
 29 24  1  0
M  END
>  <Title>  (679) 
idAAYEgen14

$$$$

     RDKit          2D

 39 44  0  0  0  0  0  0  0  0999 V2000
   -3.8536   -0.8075    0.0000 C   0  0  0  0  0  0  0  0  0  0  0  0
   -3.8536   -2.3075    0.0000 C   0  0  0  0  0  0  0  0  0  0  0  0
   -5.0672   -3.1891    0.0000 C   0  0  0  0  0  0  0  0  0  0  0  0
   -4.6036   -4.6157    0.0000 C   0  0  0  0  0  0  0  0  0  0  0  0
   -3.1036   -4.6157    0.0000 N   0  0  0  0  0  0  0  0  0  0  0  0
   -2.6401   -3.1891    0.0000 N   0  0  0  0  0  0  0  0  0  0  0  0
   -1.2135   -2.7256    0.0000 N   0  0  0  0  0  0  0  0  0  0  0  0
   -0.0000   -3.6073    0.0000 C   0  0  0  0  0  0  0  0  0  0  0  0
    1.2135   -2.7256    0.0000 C   0  0  0  0  0  0  0  0  0  0  0  0
    2.6401   -3.1891    0.0000 C   0  0  0  0  0  0  0  0  0  0  0  0
    3.7548   -2.1855    0.0000 O   0  0  0  0  0  0  0  0  0  0  0  0
    2.9520   -4.6564    0.0000 N   0  0  0  0  0  0  0  0  0  0  0  0
    4.3786   -5.1199    0.0000 C   0  0  0  0  0  0  0  0  0  0  0  0
    5.5921   -4.2382    0.0000 N   0  0  0  0  0  0  0  0  0  0  0  0
    6.8056   -5.1199    0.0000 N   0  0  0  0  0  0  0  0  0  0  0  0
    6.3421   -6.5465    0.0000 N   0  0  0  0  0  0  0  0  0  0  0  0
    4.8421   -6.5465    0.0000 N   0  0  0  0  0  0  0  0  0  0  0  0
    3.9604   -7.7600    0.0000 N   0  0  0  0  0  0  0  0  0  0  0  0
    4.4239   -9.1866    0.0000 C   0  0  0  0  0  0  0  0  0  0  0  0
    3.2104  -10.0683    0.0000 C   0  0  0  0  0  0  0  0  0  0  0  0
    1.9969   -9.1866    0.0000 N   0  0  0  0  0  0  0  0  0  0  0  0
    0.5703   -9.6501    0.0000 C   0  0  0  0  0  0  0  0  0  0  0  0
    0.2584  -11.1173    0.0000 O   0  0  0  0  0  0  0  0  0  0  0  0
   -0.5444   -8.6464    0.0000 N   0  0  0  0  0  0  0  0  0  0  0  0
   -1.9710   -9.1099    0.0000 C   0  0  0  0  0  0  0  0  0  0  0  0
   -3.0857   -8.1062    0.0000 N   0  0  0  0  0  0  0  0  0  0  0  0
   -4.5123   -8.5698    0.0000 N   0  0  0  0  0  0  0  0  0  0  0  0
   -4.8242  -10.0370    0.0000 N   0  0  0  0  0  0  0  0  0  0  0  0
   -3.7095  -11.0407    0.0000 N   0  0  0  0  0  0  0  0  0  0  0  0
   -2.2829  -10.5772    0.0000 N   0  0  0  0  0  0  0  0  0  0  0  0
    2.4604   -7.7600    0.0000 C   0  0  0  0  0  0  0  0  0  0  0  0
    1.5787   -6.5465    0.0000 C   0  0  0  0  0  0  0  0  0  0  0  0
    0.0869   -6.7033    0.0000 O   0  0  0  0  0  0  0  0  0  0  0  0
    0.7500   -1.2990    0.0000 C   0  0  0  0  0  0  0  0  0  0  0  0
    1.5000    0.0000    0.0000 C   0  0  0  0  0  0  0  0  0  0  0  0
    0.7500    1.2990    0.0000 C   0  0  0  0  0  0  0  0  0  0  0  0
   -0.7500    1.2990    0.0000 C   0  0  0  0  0  0  0  0  0  0  0  0
   -1.5000    0.0000    0.0000 C   0  0  0  0  0  0  0  0  0  0  0  0
   -0.7500   -1.2990    0.0000 C   0  0  0  0  0  0  0  0  0  0  0  0
  1  2  1  0
  2  3  2  0
  3  4  1  0
  4  5  2  0
  5  6  1  0
  6  7  1  0
  7  8  1  0
  8  9  2  0
  9 10  1  0
 10 11  2  0
 10 12  1  0
 12 13  1  0
 13 14  2  0
 14 15  1  0
 15 16  2  0
 16 17  1  0
 17 18  1  0
 18 19  1  0
 19 20  1  0
 20 21  1  0
 21 22  1  0
 22 23  2  0
 22 24  1  0
 24 25  1  0
 25 26  2  0
 26 27  1  0
 27 28  2  0
 28 29  1  0
 29 30  2  0
 21 31  1  0
 31 32  1  0
 32 33  1  0
  9 34  1  0
 34 35  2  0
 35 36  1  0
 36 37  2  0
 37 38  1  0
 38 39  2  0
  6  2  1  0
 39  7  1  0
 17 13  1  0
 31 18  1  0
 39 34  1  0
 30 25  1  0
M  END
>  <Title>  (680) 
idAAYFgen14

$$$$

     RDKit          2D

  8  7  0  0  0  0  0  0  0  0999 V2000
    0.0000    0.0000    0.0000 C   0  0  0  0  0  0  0  0  0  0  0  0
    1.2990    0.7500    0.0000 C   0  0  0  0  0  0  0  0  0  0  0  0
    2.5981   -0.0000    0.0000 C   0  0  0  0  0  0  0  0  0  0  0  0
    3.8971    0.7500    0.0000 C   0  0  0  0  0  0  0  0  0  0  0  0
    5.1962   -0.0000    0.0000 C   0  0  0  0  0  0  0  0  0  0  0  0
    6.4952    0.7500    0.0000 C   0  0  0  0  0  0  0  0  0  0  0  0
    7.7942   -0.0000    0.0000 C   0  0  0  0  0  0  0  0  0  0  0  0
    6.4952    2.2500    0.0000 N   0  0  0  0  0  0  0  0  0  0  0  0
  1  2  1  0
  2  3  2  3
  3  4  1  0
  4  5  1  0
  5  6  1  0
  6  7  1  0
  6  8  1  0
M  END
>  <Title>  (681) 
idAAYGgen14

$$$$

     RDKit          2D

  8  7  0  0  0  0  0  0  0  0999 V2000
    0.0000    0.0000    0.0000 C   0  0  0  0  0  0  0  0  0  0  0  0
    1.2990    0.7500    0.0000 C   0  0  0  0  0  0  0  0  0  0  0  0
    2.5981   -0.0000    0.0000 C   0  0  0  0  0  0  0  0  0  0  0  0
    3.8971    0.7500    0.0000 C   0  0  0  0  0  0  0  0  0  0  0  0
    2.5981   -1.5000    0.0000 C   0  0  0  0  0  0  0  0  0  0  0  0
    3.8971   -2.2500    0.0000 C   0  0  0  0  0  0  0  0  0  0  0  0
    3.8971   -3.7500    0.0000 C   0  0  0  0  0  0  0  0  0  0  0  0
    5.1962   -1.5000    0.0000 C   0  0  0  0  0  0  0  0  0  0  0  0
  1  2  1  0
  2  3  1  0
  3  4  1  0
  3  5  1  0
  5  6  1  0
  6  7  1  0
  6  8  1  0
M  END
>  <Title>  (682) 
idAAYHgen14

$$$$

     RDKit          2D

 39 44  0  0  0  0  0  0  0  0999 V2000
   -3.4182    0.0420    0.0000 C   0  0  0  0  0  0  0  0  0  0  0  0
   -3.8817   -1.3846    0.0000 C   0  0  0  0  0  0  0  0  0  0  0  0
   -5.3083   -1.8481    0.0000 N   0  0  0  0  0  0  0  0  0  0  0  0
   -5.3083   -3.3481    0.0000 C   0  0  0  0  0  0  0  0  0  0  0  0
   -3.8817   -3.8116    0.0000 C   0  0  0  0  0  0  0  0  0  0  0  0
   -3.0000   -2.5981    0.0000 N   0  0  0  0  0  0  0  0  0  0  0  0
   -1.5000   -2.5981    0.0000 C   0  0  0  0  0  0  0  0  0  0  0  0
   -0.7500   -3.8971    0.0000 C   0  0  0  0  0  0  0  0  0  0  0  0
    0.7500   -3.8971    0.0000 C   0  0  0  0  0  0  0  0  0  0  0  0
    1.5000   -2.5981    0.0000 C   0  0  0  0  0  0  0  0  0  0  0  0
    3.0000   -2.5981    0.0000 C   0  0  0  0  0  0  0  0  0  0  0  0
    3.7500   -1.2990    0.0000 O   0  0  0  0  0  0  0  0  0  0  0  0
    3.7500   -3.8971    0.0000 N   0  0  0  0  0  0  0  0  0  0  0  0
    5.2500   -3.8971    0.0000 C   0  0  0  0  0  0  0  0  0  0  0  0
    6.1317   -2.6836    0.0000 N   0  0  0  0  0  0  0  0  0  0  0  0
    7.5583   -3.1471    0.0000 N   0  0  0  0  0  0  0  0  0  0  0  0
    7.5583   -4.6471    0.0000 N   0  0  0  0  0  0  0  0  0  0  0  0
    6.1317   -5.1106    0.0000 N   0  0  0  0  0  0  0  0  0  0  0  0
    5.6682   -6.5372    0.0000 N   0  0  0  0  0  0  0  0  0  0  0  0
    6.5498   -7.7508    0.0000 C   0  0  0  0  0  0  0  0  0  0  0  0
    5.6682   -8.9643    0.0000 C   0  0  0  0  0  0  0  0  0  0  0  0
    4.2416   -8.5008    0.0000 N   0  0  0  0  0  0  0  0  0  0  0  0
    3.0280   -9.3824    0.0000 C   0  0  0  0  0  0  0  0  0  0  0  0
    3.1848  -10.8742    0.0000 O   0  0  0  0  0  0  0  0  0  0  0  0
    1.6577   -8.7723    0.0000 N   0  0  0  0  0  0  0  0  0  0  0  0
    0.4442   -9.6540    0.0000 C   0  0  0  0  0  0  0  0  0  0  0  0
   -0.9261   -9.0439    0.0000 N   0  0  0  0  0  0  0  0  0  0  0  0
   -2.1396   -9.9256    0.0000 N   0  0  0  0  0  0  0  0  0  0  0  0
   -1.9829  -11.4174    0.0000 N   0  0  0  0  0  0  0  0  0  0  0  0
   -0.6125  -12.0275    0.0000 N   0  0  0  0  0  0  0  0  0  0  0  0
    0.6010  -11.1458    0.0000 N   0  0  0  0  0  0  0  0  0  0  0  0
    4.2416   -7.0008    0.0000 C   0  0  0  0  0  0  0  0  0  0  0  0
    3.0280   -6.1191    0.0000 O   0  0  0  0  0  0  0  0  0  0  0  0
    0.7500   -1.2990    0.0000 C   0  0  0  0  0  0  0  0  0  0  0  0
    1.5000    0.0000    0.0000 C   0  0  0  0  0  0  0  0  0  0  0  0
    0.7500    1.2990    0.0000 C   0  0  0  0  0  0  0  0  0  0  0  0
   -0.7500    1.2990    0.0000 C   0  0  0  0  0  0  0  0  0  0  0  0
   -1.5000    0.0000    0.0000 C   0  0  0  0  0  0  0  0  0  0  0  0
   -0.7500   -1.2990    0.0000 C   0  0  0  0  0  0  0  0  0  0  0  0
  1  2  1  0
  2  3  2  0
  3  4  1  0
  4  5  2  0
  5  6  1  0
  6  7  1  0
  7  8  2  0
  8  9  1  0
  9 10  2  0
 10 11  1  0
 11 12  2  0
 11 13  1  0
 13 14  1  0
 14 15  2  0
 15 16  1  0
 16 17  2  0
 17 18  1  0
 18 19  1  0
 19 20  1  0
 20 21  1  0
 21 22  1  0
 22 23  1  0
 23 24  2  0
 23 25  1  0
 25 26  1  0
 26 27  2  0
 27 28  1  0
 28 29  2  0
 29 30  1  0
 30 31  2  0
 22 32  1  0
 32 33  2  0
 10 34  1  0
 34 35  2  0
 35 36  1  0
 36 37  2  0
 37 38  1  0
 38 39  2  0
  6  2  1  0
 39  7  1  0
 18 14  1  0
 32 19  1  0
 39 34  1  0
 31 26  1  0
M  END
>  <Title>  (683) 
idAAYIgen14

$$$$

     RDKit          2D

 90 91  0  0  0  0  0  0  0  0999 V2000
    1.9371   -3.8286    0.0000 C   0  0  0  0  0  0  0  0  0  0  0  0
    2.6731   -4.1350    0.0000 C   0  0  0  0  0  0  0  0  0  0  0  0
    2.1567   -5.5433    0.0000 C   0  0  0  0  0  0  0  0  0  0  0  0
    1.7632   -6.9907    0.0000 C   0  0  0  0  0  0  0  0  0  0  0  0
    1.4957   -8.4667    0.0000 C   0  0  0  0  0  0  0  0  0  0  0  0
    1.3560   -9.9602    0.0000 C   0  0  0  0  0  0  0  0  0  0  0  0
    1.3453  -11.4601    0.0000 C   0  0  0  0  0  0  0  0  0  0  0  0
    1.4635  -12.9555    0.0000 C   0  0  0  0  0  0  0  0  0  0  0  0
    1.7098  -14.4351    0.0000 C   0  0  0  0  0  0  0  0  0  0  0  0
    2.0825  -15.8881    0.0000 C   0  0  0  0  0  0  0  0  0  0  0  0
    2.5786  -17.3037    0.0000 C   0  0  0  0  0  0  0  0  0  0  0  0
    3.1946  -18.6713    0.0000 C   0  0  0  0  0  0  0  0  0  0  0  0
    3.9259  -19.9810    0.0000 C   0  0  0  0  0  0  0  0  0  0  0  0
    4.7670  -21.2230    0.0000 C   0  0  0  0  0  0  0  0  0  0  0  0
    5.7119  -22.3880    0.0000 C   0  0  0  0  0  0  0  0  0  0  0  0
    6.7533  -23.4675    0.0000 C   0  0  0  0  0  0  0  0  0  0  0  0
    7.8838  -24.4535    0.0000 C   0  0  0  0  0  0  0  0  0  0  0  0
    9.0947  -25.3386    0.0000 C   0  0  0  0  0  0  0  0  0  0  0  0
   10.3773  -26.1164    0.0000 C   0  0  0  0  0  0  0  0  0  0  0  0
   11.7221  -26.7811    0.0000 C   0  0  0  0  0  0  0  0  0  0  0  0
   13.1189  -27.3276    0.0000 C   0  0  0  0  0  0  0  0  0  0  0  0
   14.5576  -27.7521    0.0000 C   0  0  0  0  0  0  0  0  0  0  0  0
   16.0275  -28.0513    0.0000 C   0  0  0  0  0  0  0  0  0  0  0  0
   17.5176  -28.2231    0.0000 C   0  0  0  0  0  0  0  0  0  0  0  0
   19.0170  -28.2661    0.0000 C   0  0  0  0  0  0  0  0  0  0  0  0
   20.5145  -28.1801    0.0000 C   0  0  0  0  0  0  0  0  0  0  0  0
   21.9991  -27.9657    0.0000 C   0  0  0  0  0  0  0  0  0  0  0  0
   23.4598  -27.6244    0.0000 C   0  0  0  0  0  0  0  0  0  0  0  0
   24.8857  -27.1588    0.0000 C   0  0  0  0  0  0  0  0  0  0  0  0
   26.2663  -26.5724    0.0000 C   0  0  0  0  0  0  0  0  0  0  0  0
   27.5914  -25.8695    0.0000 C   0  0  0  0  0  0  0  0  0  0  0  0
   28.8512  -25.0552    0.0000 C   0  0  0  0  0  0  0  0  0  0  0  0
   30.0363  -24.1357    0.0000 C   0  0  0  0  0  0  0  0  0  0  0  0
   31.1379  -23.1177    0.0000 C   0  0  0  0  0  0  0  0  0  0  0  0
   32.1480  -22.0087    0.0000 C   0  0  0  0  0  0  0  0  0  0  0  0
   33.0590  -20.8171    0.0000 C   0  0  0  0  0  0  0  0  0  0  0  0
   33.8642  -19.5515    0.0000 C   0  0  0  0  0  0  0  0  0  0  0  0
   34.5576  -18.2214    0.0000 C   0  0  0  0  0  0  0  0  0  0  0  0
   35.1341  -16.8366    0.0000 C   0  0  0  0  0  0  0  0  0  0  0  0
   35.5895  -15.4074    0.0000 C   0  0  0  0  0  0  0  0  0  0  0  0
   35.9202  -13.9443    0.0000 C   0  0  0  0  0  0  0  0  0  0  0  0
   36.1240  -12.4582    0.0000 C   0  0  0  0  0  0  0  0  0  0  0  0
   36.1993  -10.9601    0.0000 C   0  0  0  0  0  0  0  0  0  0  0  0
   36.1455   -9.4611    0.0000 C   0  0  0  0  0  0  0  0  0  0  0  0
   35.9631   -7.9722    0.0000 C   0  0  0  0  0  0  0  0  0  0  0  0
   35.6533   -6.5046    0.0000 C   0  0  0  0  0  0  0  0  0  0  0  0
   35.2185   -5.0690    0.0000 C   0  0  0  0  0  0  0  0  0  0  0  0
   34.6620   -3.6760    0.0000 C   0  0  0  0  0  0  0  0  0  0  0  0
   33.9877   -2.3361    0.0000 C   0  0  0  0  0  0  0  0  0  0  0  0
   33.2007   -1.0591    0.0000 C   0  0  0  0  0  0  0  0  0  0  0  0
   32.3069    0.1455    0.0000 C   0  0  0  0  0  0  0  0  0  0  0  0
   31.3128    1.2688    0.0000 C   0  0  0  0  0  0  0  0  0  0  0  0
   30.2259    2.3025    0.0000 C   0  0  0  0  0  0  0  0  0  0  0  0
   29.0541    3.2389    0.0000 C   0  0  0  0  0  0  0  0  0  0  0  0
   27.8062    4.0712    0.0000 C   0  0  0  0  0  0  0  0  0  0  0  0
   26.4913    4.7930    0.0000 C   0  0  0  0  0  0  0  0  0  0  0  0
   25.1192    5.3992    0.0000 C   0  0  0  0  0  0  0  0  0  0  0  0
   23.7001    5.8852    0.0000 C   0  0  0  0  0  0  0  0  0  0  0  0
   22.2445    6.2474    0.0000 C   0  0  0  0  0  0  0  0  0  0  0  0
   20.7631    6.4831    0.0000 C   0  0  0  0  0  0  0  0  0  0  0  0
   19.2670    6.5906    0.0000 C   0  0  0  0  0  0  0  0  0  0  0  0
   17.7672    6.5691    0.0000 C   0  0  0  0  0  0  0  0  0  0  0  0
   16.2747    6.4187    0.0000 C   0  0  0  0  0  0  0  0  0  0  0  0
   14.8007    6.1406    0.0000 C   0  0  0  0  0  0  0  0  0  0  0  0
   13.3561    5.7368    0.0000 C   0  0  0  0  0  0  0  0  0  0  0  0
   11.9515    5.2103    0.0000 C   0  0  0  0  0  0  0  0  0  0  0  0
   10.5974    4.5650    0.0000 C   0  0  0  0  0  0  0  0  0  0  0  0
    9.3038    3.8057    0.0000 C   0  0  0  0  0  0  0  0  0  0  0  0
    8.0802    2.9380    0.0000 C   0  0  0  0  0  0  0  0  0  0  0  0
    6.9358    1.9684    0.0000 C   0  0  0  0  0  0  0  0  0  0  0  0
    5.8789    0.9039    0.0000 C   0  0  0  0  0  0  0  0  0  0  0  0
    4.9175   -0.2475    0.0000 C   0  0  0  0  0  0  0  0  0  0  0  0
    4.0586   -1.4772    0.0000 C   0  0  0  0  0  0  0  0  0  0  0  0
    3.6191   -0.0000    0.0000 C   0  0  0  0  0  0  0  0  0  0  0  0
    3.4008    1.2378    0.0000 C   0  0  0  0  0  0  0  0  0  0  0  0
    2.7724    2.3263    0.0000 C   0  0  0  0  0  0  0  0  0  0  0  0
    1.8095    3.1342    0.0000 C   0  0  0  0  0  0  0  0  0  0  0  0
    0.6284    3.5641    0.0000 C   0  0  0  0  0  0  0  0  0  0  0  0
   -0.6284    3.5641    0.0000 C   0  0  0  0  0  0  0  0  0  0  0  0
   -1.8095    3.1342    0.0000 C   0  0  0  0  0  0  0  0  0  0  0  0
   -2.7724    2.3263    0.0000 C   0  0  0  0  0  0  0  0  0  0  0  0
   -3.4008    1.2378    0.0000 C   0  0  0  0  0  0  0  0  0  0  0  0
   -3.6191    0.0000    0.0000 C   0  0  0  0  0  0  0  0  0  0  0  0
   -3.4008   -1.2378    0.0000 C   0  0  0  0  0  0  0  0  0  0  0  0
   -2.7724   -2.3263    0.0000 C   0  0  0  0  0  0  0  0  0  0  0  0
   -1.8095   -3.1342    0.0000 C   0  0  0  0  0  0  0  0  0  0  0  0
   -0.6284   -3.5641    0.0000 C   0  0  0  0  0  0  0  0  0  0  0  0
    0.6284   -3.5641    0.0000 C   0  0  0  0  0  0  0  0  0  0  0  0
    1.8095   -3.1342    0.0000 C   0  0  0  0  0  0  0  0  0  0  0  0
    3.3086   -2.7762    0.0000 C   0  0  0  0  0  0  0  0  0  0  0  0
  1  2  1  0
  2  3  1  0
  3  4  1  0
  4  5  1  0
  5  6  1  0
  6  7  1  0
  7  8  1  0
  8  9  1  0
  9 10  1  0
 10 11  1  0
 11 12  1  0
 12 13  1  0
 13 14  1  0
 14 15  1  0
 15 16  1  0
 16 17  1  0
 17 18  1  0
 18 19  1  0
 19 20  1  0
 20 21  1  0
 21 22  1  0
 22 23  1  0
 23 24  1  0
 24 25  1  0
 25 26  1  0
 26 27  1  0
 27 28  1  0
 28 29  1  0
 29 30  1  0
 30 31  1  0
 31 32  1  0
 32 33  1  0
 33 34  1  0
 34 35  1  0
 35 36  1  0
 36 37  1  0
 37 38  1  0
 38 39  1  0
 39 40  1  0
 40 41  1  0
 41 42  1  0
 42 43  1  0
 43 44  1  0
 44 45  1  0
 45 46  1  0
 46 47  1  0
 47 48  1  0
 48 49  1  0
 49 50  1  0
 50 51  1  0
 51 52  1  0
 52 53  1  0
 53 54  1  0
 54 55  1  0
 55 56  1  0
 56 57  1  0
 57 58  1  0
 58 59  1  0
 59 60  1  0
 60 61  1  0
 61 62  1  0
 62 63  1  0
 63 64  1  0
 64 65  1  0
 65 66  1  0
 66 67  1  0
 67 68  1  0
 68 69  1  0
 69 70  1  0
 70 71  1  0
 71 72  1  0
 72 73  1  0
 73 74  1  0
 74 75  1  0
 75 76  1  0
 76 77  1  0
 77 78  2  0
 78 79  1  0
 79 80  2  0
 80 81  1  0
 81 82  2  0
 82 83  1  0
 83 84  2  0
 84 85  1  0
 85 86  2  0
 86 87  1  0
 87 88  2  0
 88 89  1  0
 89 90  2  0
 90  2  1  0
 90 73  1  0
M  END
>  <Title>  (684) 
idAAYJgen14

$$$$

     RDKit          2D

  6  5  0  0  0  0  0  0  0  0999 V2000
    0.0000    0.0000    0.0000 C   0  0  0  0  0  0  0  0  0  0  0  0
    1.2990    0.7500    0.0000 N   0  0  0  0  0  0  0  0  0  0  0  0
    2.5981   -0.0000    0.0000 C   0  0  0  0  0  0  0  0  0  0  0  0
    3.8971    0.7500    0.0000 C   0  0  0  0  0  0  0  0  0  0  0  0
    2.5981   -1.5000    0.0000 N   0  0  0  0  0  0  0  0  0  0  0  0
    3.8971   -2.2500    0.0000 C   0  0  0  0  0  0  0  0  0  0  0  0
  1  2  1  0
  2  3  1  0
  3  4  1  0
  3  5  1  0
  5  6  1  0
M  END
>  <Title>  (685) 
idAAYKgen14

$$$$

     RDKit          2D

 14 14  0  0  0  0  0  0  0  0999 V2000
    8.2500   -3.8971    0.0000 C   0  0  0  0  0  0  0  0  0  0  0  0
    7.5000   -2.5981    0.0000 C   0  0  0  0  0  0  0  0  0  0  0  0
    8.2500   -1.2990    0.0000 C   0  0  0  0  0  0  0  0  0  0  0  0
    6.0000   -2.5981    0.0000 C   0  0  0  0  0  0  0  0  0  0  0  0
    5.2500   -1.2990    0.0000 C   0  0  0  0  0  0  0  0  0  0  0  0
    6.0000    0.0000    0.0000 O   0  0  0  0  0  0  0  0  0  0  0  0
    3.7500   -1.2990    0.0000 N   0  0  0  0  0  0  0  0  0  0  0  0
    3.0000    0.0000    0.0000 C   0  0  0  0  0  0  0  0  0  0  0  0
    1.5000    0.0000    0.0000 C   0  0  0  0  0  0  0  0  0  0  0  0
    0.7500   -1.2990    0.0000 C   0  0  0  0  0  0  0  0  0  0  0  0
   -0.7500   -1.2990    0.0000 C   0  0  0  0  0  0  0  0  0  0  0  0
   -1.5000    0.0000    0.0000 C   0  0  0  0  0  0  0  0  0  0  0  0
   -0.7500    1.2990    0.0000 C   0  0  0  0  0  0  0  0  0  0  0  0
    0.7500    1.2990    0.0000 C   0  0  0  0  0  0  0  0  0  0  0  0
  1  2  1  0
  2  3  1  0
  2  4  1  0
  4  5  1  0
  5  6  2  0
  5  7  1  0
  7  8  1  0
  8  9  1  0
  9 10  2  0
 10 11  1  0
 11 12  1  0
 12 13  1  0
 13 14  2  0
 14  9  1  0
M  END
>  <Title>  (686) 
idAAYLgen14

$$$$

     RDKit          2D

 10  9  0  0  0  0  0  0  0  0999 V2000
    0.0000    0.0000    0.0000 C   0  0  0  0  0  0  0  0  0  0  0  0
    1.2990    0.7500    0.0000 C   0  0  0  0  0  0  0  0  0  0  0  0
    2.5981   -0.0000    0.0000 C   0  0  0  0  0  0  0  0  0  0  0  0
    3.8971    0.7500    0.0000 C   0  0  0  0  0  0  0  0  0  0  0  0
    5.1962   -0.0000    0.0000 C   0  0  0  0  0  0  0  0  0  0  0  0
    3.8971    2.2500    0.0000 N   0  0  0  0  0  0  0  0  0  0  0  0
    5.1962    3.0000    0.0000 C   0  0  0  0  0  0  0  0  0  0  0  0
    5.1962    4.5000    0.0000 C   0  0  0  0  0  0  0  0  0  0  0  0
    6.4952    5.2500    0.0000 C   0  0  0  0  0  0  0  0  0  0  0  0
    3.8971    5.2500    0.0000 C   0  0  0  0  0  0  0  0  0  0  0  0
  1  2  1  0
  2  3  1  0
  3  4  1  0
  4  5  1  0
  4  6  1  0
  6  7  1  0
  7  8  1  0
  8  9  1  0
  8 10  1  0
M  END
>  <Title>  (687) 
idAAYMgen14

$$$$

     RDKit          2D

103104  0  0  0  0  0  0  0  0999 V2000
    6.2433    4.2820    0.0000 C   0  0  0  0  0  0  0  0  0  0  0  0
    7.0312    4.4034    0.0000 C   0  0  0  0  0  0  0  0  0  0  0  0
    6.8686    5.8946    0.0000 C   0  0  0  0  0  0  0  0  0  0  0  0
    6.8384    7.3943    0.0000 C   0  0  0  0  0  0  0  0  0  0  0  0
    6.9409    8.8908    0.0000 C   0  0  0  0  0  0  0  0  0  0  0  0
    7.1752   10.3723    0.0000 C   0  0  0  0  0  0  0  0  0  0  0  0
    7.5396   11.8274    0.0000 C   0  0  0  0  0  0  0  0  0  0  0  0
    8.0312   13.2446    0.0000 C   0  0  0  0  0  0  0  0  0  0  0  0
    8.6461   14.6128    0.0000 C   0  0  0  0  0  0  0  0  0  0  0  0
    9.3794   15.9212    0.0000 C   0  0  0  0  0  0  0  0  0  0  0  0
   10.2256   17.1598    0.0000 C   0  0  0  0  0  0  0  0  0  0  0  0
   11.1779   18.3187    0.0000 C   0  0  0  0  0  0  0  0  0  0  0  0
   12.2289   19.3889    0.0000 C   0  0  0  0  0  0  0  0  0  0  0  0
   13.3704   20.3621    0.0000 C   0  0  0  0  0  0  0  0  0  0  0  0
   14.5935   21.2305    0.0000 C   0  0  0  0  0  0  0  0  0  0  0  0
   15.8885   21.9875    0.0000 C   0  0  0  0  0  0  0  0  0  0  0  0
   17.2453   22.6270    0.0000 C   0  0  0  0  0  0  0  0  0  0  0  0
   18.6533   23.1441    0.0000 C   0  0  0  0  0  0  0  0  0  0  0  0
   20.1016   23.5348    0.0000 C   0  0  0  0  0  0  0  0  0  0  0  0
   21.5787   23.7959    0.0000 C   0  0  0  0  0  0  0  0  0  0  0  0
   23.0731   23.9255    0.0000 C   0  0  0  0  0  0  0  0  0  0  0  0
   24.5731   23.9225    0.0000 C   0  0  0  0  0  0  0  0  0  0  0  0
   26.0669   23.7869    0.0000 C   0  0  0  0  0  0  0  0  0  0  0  0
   27.5430   23.5198    0.0000 C   0  0  0  0  0  0  0  0  0  0  0  0
   28.9896   23.1233    0.0000 C   0  0  0  0  0  0  0  0  0  0  0  0
   30.3956   22.6006    0.0000 C   0  0  0  0  0  0  0  0  0  0  0  0
   31.7498   21.9556    0.0000 C   0  0  0  0  0  0  0  0  0  0  0  0
   33.0417   21.1934    0.0000 C   0  0  0  0  0  0  0  0  0  0  0  0
   34.2613   20.3201    0.0000 C   0  0  0  0  0  0  0  0  0  0  0  0
   35.3988   19.3423    0.0000 C   0  0  0  0  0  0  0  0  0  0  0  0
   36.4455   18.2679    0.0000 C   0  0  0  0  0  0  0  0  0  0  0  0
   37.3932   17.1052    0.0000 C   0  0  0  0  0  0  0  0  0  0  0  0
   38.2344   15.8632    0.0000 C   0  0  0  0  0  0  0  0  0  0  0  0
   38.9625   14.5518    0.0000 C   0  0  0  0  0  0  0  0  0  0  0  0
   39.5719   13.1811    0.0000 C   0  0  0  0  0  0  0  0  0  0  0  0
   40.0577   11.7620    0.0000 C   0  0  0  0  0  0  0  0  0  0  0  0
   40.4162   10.3055    0.0000 C   0  0  0  0  0  0  0  0  0  0  0  0
   40.6446    8.8230    0.0000 C   0  0  0  0  0  0  0  0  0  0  0  0
   40.7411    7.3261    0.0000 C   0  0  0  0  0  0  0  0  0  0  0  0
   40.7049    5.8265    0.0000 C   0  0  0  0  0  0  0  0  0  0  0  0
   40.5363    4.3360    0.0000 C   0  0  0  0  0  0  0  0  0  0  0  0
   40.2366    2.8663    0.0000 C   0  0  0  0  0  0  0  0  0  0  0  0
   39.8083    1.4287    0.0000 C   0  0  0  0  0  0  0  0  0  0  0  0
   39.2545    0.0347    0.0000 C   0  0  0  0  0  0  0  0  0  0  0  0
   38.5797   -1.3050    0.0000 C   0  0  0  0  0  0  0  0  0  0  0  0
   37.7892   -2.5797    0.0000 C   0  0  0  0  0  0  0  0  0  0  0  0
   36.8890   -3.7796    0.0000 C   0  0  0  0  0  0  0  0  0  0  0  0
   35.8864   -4.8953    0.0000 C   0  0  0  0  0  0  0  0  0  0  0  0
   34.7891   -5.9180    0.0000 C   0  0  0  0  0  0  0  0  0  0  0  0
   33.6056   -6.8397    0.0000 C   0  0  0  0  0  0  0  0  0  0  0  0
   32.3454   -7.6532    0.0000 C   0  0  0  0  0  0  0  0  0  0  0  0
   31.0182   -8.3521    0.0000 C   0  0  0  0  0  0  0  0  0  0  0  0
   29.6344   -8.9310    0.0000 C   0  0  0  0  0  0  0  0  0  0  0  0
   28.2048   -9.3853    0.0000 C   0  0  0  0  0  0  0  0  0  0  0  0
   26.7408   -9.7115    0.0000 C   0  0  0  0  0  0  0  0  0  0  0  0
   25.2536   -9.9071    0.0000 C   0  0  0  0  0  0  0  0  0  0  0  0
   23.7549   -9.9704    0.0000 C   0  0  0  0  0  0  0  0  0  0  0  0
   22.2565   -9.9011    0.0000 C   0  0  0  0  0  0  0  0  0  0  0  0
   20.7701   -9.6995    0.0000 C   0  0  0  0  0  0  0  0  0  0  0  0
   19.3073   -9.3674    0.0000 C   0  0  0  0  0  0  0  0  0  0  0  0
   17.8796   -8.9074    0.0000 C   0  0  0  0  0  0  0  0  0  0  0  0
   16.4982   -8.3229    0.0000 C   0  0  0  0  0  0  0  0  0  0  0  0
   15.1738   -7.6186    0.0000 C   0  0  0  0  0  0  0  0  0  0  0  0
   13.9168   -6.8001    0.0000 C   0  0  0  0  0  0  0  0  0  0  0  0
   12.7371   -5.8736    0.0000 C   0  0  0  0  0  0  0  0  0  0  0  0
   11.6439   -4.8465    0.0000 C   0  0  0  0  0  0  0  0  0  0  0  0
   10.6458   -3.7269    0.0000 C   0  0  0  0  0  0  0  0  0  0  0  0
    9.7505   -2.5233    0.0000 C   0  0  0  0  0  0  0  0  0  0  0  0
    8.9650   -1.2454    0.0000 C   0  0  0  0  0  0  0  0  0  0  0  0
    8.2956    0.0969    0.0000 C   0  0  0  0  0  0  0  0  0  0  0  0
    7.7475    1.4932    0.0000 C   0  0  0  0  0  0  0  0  0  0  0  0
    7.1901   -0.0000    0.0000 C   0  0  0  0  0  0  0  0  0  0  0  0
    7.0601   -1.3607    0.0000 C   0  0  0  0  0  0  0  0  0  0  0  0
    6.6750   -2.6723    0.0000 C   0  0  0  0  0  0  0  0  0  0  0  0
    6.0487   -3.8873    0.0000 C   0  0  0  0  0  0  0  0  0  0  0  0
    5.2037   -4.9617    0.0000 C   0  0  0  0  0  0  0  0  0  0  0  0
    4.1707   -5.8569    0.0000 C   0  0  0  0  0  0  0  0  0  0  0  0
    2.9869   -6.5403    0.0000 C   0  0  0  0  0  0  0  0  0  0  0  0
    1.6951   -6.9874    0.0000 C   0  0  0  0  0  0  0  0  0  0  0  0
    0.3421   -7.1819    0.0000 C   0  0  0  0  0  0  0  0  0  0  0  0
   -1.0233   -7.1169    0.0000 C   0  0  0  0  0  0  0  0  0  0  0  0
   -2.3516   -6.7946    0.0000 C   0  0  0  0  0  0  0  0  0  0  0  0
   -3.5950   -6.2268    0.0000 C   0  0  0  0  0  0  0  0  0  0  0  0
   -4.7085   -5.4339    0.0000 C   0  0  0  0  0  0  0  0  0  0  0  0
   -5.6518   -4.4446    0.0000 C   0  0  0  0  0  0  0  0  0  0  0  0
   -6.3908   -3.2947    0.0000 C   0  0  0  0  0  0  0  0  0  0  0  0
   -6.8988   -2.0257    0.0000 C   0  0  0  0  0  0  0  0  0  0  0  0
   -7.1575   -0.6835    0.0000 C   0  0  0  0  0  0  0  0  0  0  0  0
   -7.1575    0.6835    0.0000 C   0  0  0  0  0  0  0  0  0  0  0  0
   -6.8988    2.0257    0.0000 C   0  0  0  0  0  0  0  0  0  0  0  0
   -6.3908    3.2947    0.0000 C   0  0  0  0  0  0  0  0  0  0  0  0
   -5.6518    4.4446    0.0000 C   0  0  0  0  0  0  0  0  0  0  0  0
   -4.7085    5.4339    0.0000 C   0  0  0  0  0  0  0  0  0  0  0  0
   -3.5950    6.2268    0.0000 C   0  0  0  0  0  0  0  0  0  0  0  0
   -2.3516    6.7946    0.0000 C   0  0  0  0  0  0  0  0  0  0  0  0
   -1.0233    7.1169    0.0000 C   0  0  0  0  0  0  0  0  0  0  0  0
    0.3421    7.1819    0.0000 C   0  0  0  0  0  0  0  0  0  0  0  0
    1.6951    6.9874    0.0000 C   0  0  0  0  0  0  0  0  0  0  0  0
    2.9869    6.5403    0.0000 C   0  0  0  0  0  0  0  0  0  0  0  0
    4.1707    5.8569    0.0000 C   0  0  0  0  0  0  0  0  0  0  0  0
    5.2037    4.9617    0.0000 C   0  0  0  0  0  0  0  0  0  0  0  0
    6.0487    3.8873    0.0000 C   0  0  0  0  0  0  0  0  0  0  0  0
    7.3249    2.9324    0.0000 C   0  0  0  0  0  0  0  0  0  0  0  0
  1  2  1  0
  2  3  1  0
  3  4  1  0
  4  5  1  0
  5  6  1  0
  6  7  1  0
  7  8  1  0
  8  9  1  0
  9 10  1  0
 10 11  1  0
 11 12  1  0
 12 13  1  0
 13 14  1  0
 14 15  1  0
 15 16  1  0
 16 17  1  0
 17 18  1  0
 18 19  1  0
 19 20  1  0
 20 21  1  0
 21 22  1  0
 22 23  1  0
 23 24  1  0
 24 25  1  0
 25 26  1  0
 26 27  1  0
 27 28  1  0
 28 29  1  0
 29 30  1  0
 30 31  1  0
 31 32  1  0
 32 33  1  0
 33 34  1  0
 34 35  1  0
 35 36  1  0
 36 37  1  0
 37 38  1  0
 38 39  1  0
 39 40  1  0
 40 41  1  0
 41 42  1  0
 42 43  1  0
 43 44  1  0
 44 45  1  0
 45 46  1  0
 46 47  1  0
 47 48  1  0
 48 49  1  0
 49 50  1  0
 50 51  1  0
 51 52  1  0
 52 53  1  0
 53 54  1  0
 54 55  1  0
 55 56  1  0
 56 57  1  0
 57 58  1  0
 58 59  1  0
 59 60  1  0
 60 61  1  0
 61 62  1  0
 62 63  1  0
 63 64  1  0
 64 65  1  0
 65 66  1  0
 66 67  1  0
 67 68  1  0
 68 69  1  0
 69 70  1  0
 70 71  1  0
 71 72  1  0
 72 73  1  0
 73 74  1  0
 74 75  2  0
 75 76  1  0
 76 77  2  0
 77 78  1  0
 78 79  2  0
 79 80  1  0
 80 81  2  0
 81 82  1  0
 82 83  2  0
 83 84  1  0
 84 85  2  0
 85 86  1  0
 86 87  2  0
 87 88  1  0
 88 89  2  0
 89 90  1  0
 90 91  2  0
 91 92  1  0
 92 93  2  0
 93 94  1  0
 94 95  2  0
 95 96  1  0
 96 97  2  0
 97 98  1  0
 98 99  2  0
 99100  1  0
100101  2  0
101102  1  0
102103  2  0
103  2  1  0
103 71  1  0
M  END
>  <Title>  (688) 
idAAYNgen14

$$$$

     RDKit          2D

 10 10  0  0  0  0  0  0  0  0999 V2000
    5.2500   -1.2990    0.0000 C   0  0  0  0  0  0  0  0  0  0  0  0
    3.7500   -1.2990    0.0000 C   0  0  0  0  0  0  0  0  0  0  0  0
    3.0000   -2.5981    0.0000 O   0  0  0  0  0  0  0  0  0  0  0  0
    3.0000    0.0000    0.0000 N   0  0  0  0  0  0  0  0  0  0  0  0
    1.5000    0.0000    0.0000 C   0  0  0  0  0  0  0  0  0  0  0  0
    0.7500   -1.2990    0.0000 C   0  0  0  0  0  0  0  0  0  0  0  0
   -0.7500   -1.2990    0.0000 C   0  0  0  0  0  0  0  0  0  0  0  0
   -1.5000    0.0000    0.0000 C   0  0  0  0  0  0  0  0  0  0  0  0
   -0.7500    1.2990    0.0000 C   0  0  0  0  0  0  0  0  0  0  0  0
    0.7500    1.2990    0.0000 C   0  0  0  0  0  0  0  0  0  0  0  0
  1  2  1  0
  2  3  2  0
  2  4  1  0
  4  5  1  0
  5  6  2  0
  6  7  1  0
  7  8  2  0
  8  9  1  0
  9 10  2  0
 10  5  1  0
M  END
>  <Title>  (689) 
idAAYOgen14

$$$$

     RDKit          2D

 10 10  0  0  0  0  0  0  0  0999 V2000
    6.0000   -2.5981    0.0000 C   0  0  0  0  0  0  0  0  0  0  0  0
    5.2500   -1.2990    0.0000 C   0  0  0  0  0  0  0  0  0  0  0  0
    3.7500   -1.2990    0.0000 C   0  0  0  0  0  0  0  0  0  0  0  0
    3.0000    0.0000    0.0000 N   0  0  0  0  0  0  0  0  0  0  0  0
    1.5000    0.0000    0.0000 C   0  0  0  0  0  0  0  0  0  0  0  0
    0.7500   -1.2990    0.0000 C   0  0  0  0  0  0  0  0  0  0  0  0
   -0.7500   -1.2990    0.0000 C   0  0  0  0  0  0  0  0  0  0  0  0
   -1.5000    0.0000    0.0000 C   0  0  0  0  0  0  0  0  0  0  0  0
   -0.7500    1.2990    0.0000 N   0  0  0  0  0  0  0  0  0  0  0  0
    0.7500    1.2990    0.0000 C   0  0  0  0  0  0  0  0  0  0  0  0
  1  2  1  0
  2  3  1  0
  3  4  1  0
  4  5  1  0
  5  6  2  0
  6  7  1  0
  7  8  2  0
  8  9  1  0
  9 10  2  0
 10  5  1  0
M  END
>  <Title>  (690) 
idAAYPgen14

$$$$

     RDKit          2D

 10  9  0  0  0  0  0  0  0  0999 V2000
    0.0000    0.0000    0.0000 C   0  0  0  0  0  0  0  0  0  0  0  0
    1.2990    0.7500    0.0000 C   0  0  0  0  0  0  0  0  0  0  0  0
    2.5981   -0.0000    0.0000 C   0  0  0  0  0  0  0  0  0  0  0  0
    3.8971    0.7500    0.0000 C   0  0  0  0  0  0  0  0  0  0  0  0
    5.1962   -0.0000    0.0000 N   0  0  0  0  0  0  0  0  0  0  0  0
    6.4952    0.7500    0.0000 C   0  0  0  0  0  0  0  0  0  0  0  0
    6.4952    2.2500    0.0000 O   0  0  0  0  0  0  0  0  0  0  0  0
    7.7942   -0.0000    0.0000 C   0  0  0  0  0  0  0  0  0  0  0  0
    9.0933    0.7500    0.0000 C   0  0  0  0  0  0  0  0  0  0  0  0
   10.3923   -0.0000    0.0000 C   0  0  0  0  0  0  0  0  0  0  0  0
  1  2  2  0
  2  3  1  0
  3  4  1  0
  4  5  1  0
  5  6  1  0
  6  7  2  0
  6  8  1  0
  8  9  1  0
  9 10  1  0
M  END
>  <Title>  (691) 
idAAYQgen14

$$$$

     RDKit          2D

 43 47  0  0  0  0  0  0  0  0999 V2000
   -5.2500   -9.0933    0.0000 C   0  0  0  0  0  0  0  0  0  0  0  0
   -6.0000   -7.7942    0.0000 C   0  0  0  0  0  0  0  0  0  0  0  0
   -7.5000   -7.7942    0.0000 C   0  0  0  0  0  0  0  0  0  0  0  0
   -5.2500   -6.4952    0.0000 C   0  0  0  0  0  0  0  0  0  0  0  0
   -6.0000   -5.1962    0.0000 C   0  0  0  0  0  0  0  0  0  0  0  0
   -7.5000   -5.1962    0.0000 C   0  0  0  0  0  0  0  0  0  0  0  0
   -5.2500   -3.8971    0.0000 N   0  0  0  0  0  0  0  0  0  0  0  0
   -3.7500   -3.8971    0.0000 C   0  0  0  0  0  0  0  0  0  0  0  0
   -3.0000   -5.1962    0.0000 O   0  0  0  0  0  0  0  0  0  0  0  0
   -3.0000   -2.5981    0.0000 C   0  0  0  0  0  0  0  0  0  0  0  0
   -1.5000   -2.5981    0.0000 C   0  0  0  0  0  0  0  0  0  0  0  0
   -0.7500   -3.8971    0.0000 C   0  0  0  0  0  0  0  0  0  0  0  0
    0.7500   -3.8971    0.0000 S   0  0  0  0  0  4  0  0  0  0  0  0
    1.5000   -2.5981    0.0000 C   0  0  0  0  0  0  0  0  0  0  0  0
    3.0000   -2.5981    0.0000 C   0  0  0  0  0  0  0  0  0  0  0  0
    3.7500   -1.2990    0.0000 O   0  0  0  0  0  0  0  0  0  0  0  0
    3.7500   -3.8971    0.0000 N   0  0  0  0  0  0  0  0  0  0  0  0
    5.2500   -3.8971    0.0000 C   0  0  0  0  0  0  0  0  0  0  0  0
    6.1317   -2.6836    0.0000 N   0  0  0  0  0  0  0  0  0  0  0  0
    7.5583   -3.1471    0.0000 N   0  0  0  0  0  0  0  0  0  0  0  0
    7.5583   -4.6471    0.0000 N   0  0  0  0  0  0  0  0  0  0  0  0
    6.1317   -5.1106    0.0000 N   0  0  0  0  0  0  0  0  0  0  0  0
    5.6682   -6.5372    0.0000 N   0  0  0  0  0  0  0  0  0  0  0  0
    6.5498   -7.7508    0.0000 C   0  0  0  0  0  0  0  0  0  0  0  0
    5.6682   -8.9643    0.0000 C   0  0  0  0  0  0  0  0  0  0  0  0
    4.2416   -8.5008    0.0000 N   0  0  0  0  0  0  0  0  0  0  0  0
    3.0280   -9.3824    0.0000 C   0  0  0  0  0  0  0  0  0  0  0  0
    3.1848  -10.8742    0.0000 O   0  0  0  0  0  0  0  0  0  0  0  0
    1.6577   -8.7723    0.0000 N   0  0  0  0  0  0  0  0  0  0  0  0
    0.4442   -9.6540    0.0000 C   0  0  0  0  0  0  0  0  0  0  0  0
   -0.9261   -9.0439    0.0000 N   0  0  0  0  0  0  0  0  0  0  0  0
   -2.1396   -9.9256    0.0000 N   0  0  0  0  0  0  0  0  0  0  0  0
   -1.9829  -11.4174    0.0000 N   0  0  0  0  0  0  0  0  0  0  0  0
   -0.6125  -12.0275    0.0000 N   0  0  0  0  0  0  0  0  0  0  0  0
    0.6010  -11.1458    0.0000 N   0  0  0  0  0  0  0  0  0  0  0  0
    4.2416   -7.0008    0.0000 C   0  0  0  0  0  0  0  0  0  0  0  0
    3.0280   -6.1191    0.0000 O   0  0  0  0  0  0  0  0  0  0  0  0
    0.7500   -1.2990    0.0000 C   0  0  0  0  0  0  0  0  0  0  0  0
    1.5000    0.0000    0.0000 C   0  0  0  0  0  0  0  0  0  0  0  0
    0.7500    1.2990    0.0000 C   0  0  0  0  0  0  0  0  0  0  0  0
   -0.7500    1.2990    0.0000 C   0  0  0  0  0  0  0  0  0  0  0  0
   -1.5000    0.0000    0.0000 C   0  0  0  0  0  0  0  0  0  0  0  0
   -0.7500   -1.2990    0.0000 C   0  0  0  0  0  0  0  0  0  0  0  0
  1  2  1  0
  2  3  1  0
  2  4  1  0
  4  5  1  0
  5  6  1  0
  5  7  1  0
  7  8  1  0
  8  9  2  0
  8 10  1  0
 10 11  1  0
 11 12  2  0
 12 13  1  0
 13 14  2  0
 14 15  1  0
 15 16  2  0
 15 17  1  0
 17 18  1  0
 18 19  2  0
 19 20  1  0
 20 21  2  0
 21 22  1  0
 22 23  1  0
 23 24  1  0
 24 25  1  0
 25 26  1  0
 26 27  1  0
 27 28  2  0
 27 29  1  0
 29 30  1  0
 30 31  2  0
 31 32  1  0
 32 33  2  0
 33 34  1  0
 34 35  2  0
 26 36  1  0
 36 37  2  0
 14 38  1  0
 38 39  2  0
 39 40  1  0
 40 41  2  0
 41 42  1  0
 42 43  2  0
 43 11  1  0
 22 18  1  0
 36 23  1  0
 43 38  1  0
 35 30  1  0
M  END
>  <Title>  (692) 
idAAYRgen14

$$$$

     RDKit          2D

 39 43  0  0  0  0  0  0  0  0999 V2000
   -3.1771   -1.2990    0.0000 C   0  0  0  0  0  0  0  0  0  0  0  0
   -1.9635   -2.1807    0.0000 C   0  0  0  0  0  0  0  0  0  0  0  0
   -2.4271   -3.6073    0.0000 C   0  0  0  0  0  0  0  0  0  0  0  0
   -1.9635   -5.0339    0.0000 C   0  0  0  0  0  0  0  0  0  0  0  0
   -0.7500   -5.9156    0.0000 C   0  0  0  0  0  0  0  0  0  0  0  0
    0.7500   -5.9156    0.0000 C   0  0  0  0  0  0  0  0  0  0  0  0
    1.9635   -5.0339    0.0000 C   0  0  0  0  0  0  0  0  0  0  0  0
    3.1771   -5.9156    0.0000 C   0  0  0  0  0  0  0  0  0  0  0  0
    4.5474   -5.3055    0.0000 O   0  0  0  0  0  0  0  0  0  0  0  0
    3.0203   -7.4073    0.0000 N   0  0  0  0  0  0  0  0  0  0  0  0
    4.2338   -8.2890    0.0000 C   0  0  0  0  0  0  0  0  0  0  0  0
    5.6604   -7.8255    0.0000 N   0  0  0  0  0  0  0  0  0  0  0  0
    6.5420   -9.0390    0.0000 N   0  0  0  0  0  0  0  0  0  0  0  0
    5.6604  -10.2525    0.0000 N   0  0  0  0  0  0  0  0  0  0  0  0
    4.2338   -9.7890    0.0000 N   0  0  0  0  0  0  0  0  0  0  0  0
    3.0203  -10.6707    0.0000 C   0  0  0  0  0  0  0  0  0  0  0  0
    3.0203  -12.1707    0.0000 C   0  0  0  0  0  0  0  0  0  0  0  0
    1.5937  -12.6342    0.0000 C   0  0  0  0  0  0  0  0  0  0  0  0
    0.7120  -11.4207    0.0000 C   0  0  0  0  0  0  0  0  0  0  0  0
   -0.7880  -11.4207    0.0000 C   0  0  0  0  0  0  0  0  0  0  0  0
   -1.5380  -12.7197    0.0000 O   0  0  0  0  0  0  0  0  0  0  0  0
   -1.5380  -10.1217    0.0000 N   0  0  0  0  0  0  0  0  0  0  0  0
   -3.0380  -10.1217    0.0000 C   0  0  0  0  0  0  0  0  0  0  0  0
   -3.7880   -8.8226    0.0000 N   0  0  0  0  0  0  0  0  0  0  0  0
   -5.2880   -8.8226    0.0000 N   0  0  0  0  0  0  0  0  0  0  0  0
   -6.0380  -10.1217    0.0000 N   0  0  0  0  0  0  0  0  0  0  0  0
   -5.2880  -11.4207    0.0000 N   0  0  0  0  0  0  0  0  0  0  0  0
   -3.7880  -11.4207    0.0000 N   0  0  0  0  0  0  0  0  0  0  0  0
    1.5937  -10.2072    0.0000 C   0  0  0  0  0  0  0  0  0  0  0  0
    1.1301   -8.7806    0.0000 O   0  0  0  0  0  0  0  0  0  0  0  0
    2.4271   -3.6073    0.0000 C   0  0  0  0  0  0  0  0  0  0  0  0
    3.9271   -3.6073    0.0000 O   0  0  0  0  0  0  0  0  0  0  0  0
    1.9635   -2.1807    0.0000 O   0  0  0  0  0  0  0  0  0  0  0  0
    0.7500   -1.2990    0.0000 C   0  0  0  0  0  0  0  0  0  0  0  0
    1.5000    0.0000    0.0000 C   0  0  0  0  0  0  0  0  0  0  0  0
    0.7500    1.2990    0.0000 C   0  0  0  0  0  0  0  0  0  0  0  0
   -0.7500    1.2990    0.0000 C   0  0  0  0  0  0  0  0  0  0  0  0
   -1.5000    0.0000    0.0000 C   0  0  0  0  0  0  0  0  0  0  0  0
   -0.7500   -1.2990    0.0000 C   0  0  0  0  0  0  0  0  0  0  0  0
  1  2  1  0
  2  3  2  0
  3  4  1  0
  4  5  1  0
  5  6  1  0
  6  7  1  0
  7  8  1  0
  8  9  2  0
  8 10  1  0
 10 11  1  0
 11 12  2  0
 12 13  1  0
 13 14  2  0
 14 15  1  0
 15 16  1  0
 16 17  2  0
 17 18  1  0
 18 19  2  0
 19 20  1  0
 20 21  2  0
 20 22  1  0
 22 23  1  0
 23 24  2  0
 24 25  1  0
 25 26  2  0
 26 27  1  0
 27 28  2  0
 19 29  1  0
 29 30  2  0
  7 31  1  0
 31 32  2  0
 31 33  1  0
 33 34  1  0
 34 35  2  0
 35 36  1  0
 36 37  2  0
 37 38  1  0
 38 39  2  0
 39  2  1  0
 15 11  1  0
 29 16  1  0
 39 34  1  0
 28 23  1  0
M  END
>  <Title>  (693) 
idAAYSgen14

$$$$

     RDKit          2D

 89 90  0  0  0  0  0  0  0  0999 V2000
    7.3401    4.3711    0.0000 C   0  0  0  0  0  0  0  0  0  0  0  0
    8.1349    4.4323    0.0000 C   0  0  0  0  0  0  0  0  0  0  0  0
    8.1085    5.9321    0.0000 C   0  0  0  0  0  0  0  0  0  0  0  0
    8.2596    7.4244    0.0000 C   0  0  0  0  0  0  0  0  0  0  0  0
    8.5862    8.8885    0.0000 C   0  0  0  0  0  0  0  0  0  0  0  0
    9.0836   10.3036    0.0000 C   0  0  0  0  0  0  0  0  0  0  0  0
    9.7450   11.6499    0.0000 C   0  0  0  0  0  0  0  0  0  0  0  0
   10.5609   12.9086    0.0000 C   0  0  0  0  0  0  0  0  0  0  0  0
   11.5199   14.0620    0.0000 C   0  0  0  0  0  0  0  0  0  0  0  0
   12.6087   15.0938    0.0000 C   0  0  0  0  0  0  0  0  0  0  0  0
   13.8118   15.9896    0.0000 C   0  0  0  0  0  0  0  0  0  0  0  0
   15.1124   16.7368    0.0000 C   0  0  0  0  0  0  0  0  0  0  0  0
   16.4923   17.3250    0.0000 C   0  0  0  0  0  0  0  0  0  0  0  0
   17.9321   17.7458    0.0000 C   0  0  0  0  0  0  0  0  0  0  0  0
   19.4115   17.9933    0.0000 C   0  0  0  0  0  0  0  0  0  0  0  0
   20.9098   18.0642    0.0000 C   0  0  0  0  0  0  0  0  0  0  0  0
   22.4060   17.9574    0.0000 C   0  0  0  0  0  0  0  0  0  0  0  0
   23.8791   17.6743    0.0000 C   0  0  0  0  0  0  0  0  0  0  0  0
   25.3083   17.2190    0.0000 C   0  0  0  0  0  0  0  0  0  0  0  0
   26.6737   16.5979    0.0000 C   0  0  0  0  0  0  0  0  0  0  0  0
   27.9560   15.8196    0.0000 C   0  0  0  0  0  0  0  0  0  0  0  0
   29.1372   14.8952    0.0000 C   0  0  0  0  0  0  0  0  0  0  0  0
   30.2009   13.8375    0.0000 C   0  0  0  0  0  0  0  0  0  0  0  0
   31.1319   12.6614    0.0000 C   0  0  0  0  0  0  0  0  0  0  0  0
   31.9174   11.3835    0.0000 C   0  0  0  0  0  0  0  0  0  0  0  0
   32.5462   10.0217    0.0000 C   0  0  0  0  0  0  0  0  0  0  0  0
   33.0095    8.5950    0.0000 C   0  0  0  0  0  0  0  0  0  0  0  0
   33.3008    7.1236    0.0000 C   0  0  0  0  0  0  0  0  0  0  0  0
   33.4160    5.6280    0.0000 C   0  0  0  0  0  0  0  0  0  0  0  0
   33.3535    4.1293    0.0000 C   0  0  0  0  0  0  0  0  0  0  0  0
   33.1143    2.6485    0.0000 C   0  0  0  0  0  0  0  0  0  0  0  0
   32.7015    1.2064    0.0000 C   0  0  0  0  0  0  0  0  0  0  0  0
   32.1211   -0.1768    0.0000 C   0  0  0  0  0  0  0  0  0  0  0  0
   31.3812   -1.4816    0.0000 C   0  0  0  0  0  0  0  0  0  0  0  0
   30.4922   -2.6897    0.0000 C   0  0  0  0  0  0  0  0  0  0  0  0
   29.4665   -3.7842    0.0000 C   0  0  0  0  0  0  0  0  0  0  0  0
   28.3185   -4.7497    0.0000 C   0  0  0  0  0  0  0  0  0  0  0  0
   27.0644   -5.5727    0.0000 C   0  0  0  0  0  0  0  0  0  0  0  0
   25.7218   -6.2415    0.0000 C   0  0  0  0  0  0  0  0  0  0  0  0
   24.3095   -6.7469    0.0000 C   0  0  0  0  0  0  0  0  0  0  0  0
   22.8473   -7.0817    0.0000 C   0  0  0  0  0  0  0  0  0  0  0  0
   21.3558   -7.2412    0.0000 C   0  0  0  0  0  0  0  0  0  0  0  0
   19.8559   -7.2232    0.0000 C   0  0  0  0  0  0  0  0  0  0  0  0
   18.3687   -7.0279    0.0000 C   0  0  0  0  0  0  0  0  0  0  0  0
   16.9150   -6.6581    0.0000 C   0  0  0  0  0  0  0  0  0  0  0  0
   15.5153   -6.1189    0.0000 C   0  0  0  0  0  0  0  0  0  0  0  0
   14.1891   -5.4180    0.0000 C   0  0  0  0  0  0  0  0  0  0  0  0
   12.9552   -4.5651    0.0000 C   0  0  0  0  0  0  0  0  0  0  0  0
   11.8307   -3.5723    0.0000 C   0  0  0  0  0  0  0  0  0  0  0  0
   10.8316   -2.4535    0.0000 C   0  0  0  0  0  0  0  0  0  0  0  0
    9.9719   -1.2243    0.0000 C   0  0  0  0  0  0  0  0  0  0  0  0
    9.2635    0.0979    0.0000 C   0  0  0  0  0  0  0  0  0  0  0  0
    8.7165    1.4946    0.0000 C   0  0  0  0  0  0  0  0  0  0  0  0
    8.1437   -0.0000    0.0000 C   0  0  0  0  0  0  0  0  0  0  0  0
    8.0266   -1.3763    0.0000 C   0  0  0  0  0  0  0  0  0  0  0  0
    7.6785   -2.7130    0.0000 C   0  0  0  0  0  0  0  0  0  0  0  0
    7.1096   -3.9717    0.0000 C   0  0  0  0  0  0  0  0  0  0  0  0
    6.3361   -5.1160    0.0000 C   0  0  0  0  0  0  0  0  0  0  0  0
    5.3804   -6.1133    0.0000 C   0  0  0  0  0  0  0  0  0  0  0  0
    4.2698   -6.9346    0.0000 C   0  0  0  0  0  0  0  0  0  0  0  0
    3.0364   -7.5565    0.0000 C   0  0  0  0  0  0  0  0  0  0  0  0
    1.7157   -7.9609    0.0000 C   0  0  0  0  0  0  0  0  0  0  0  0
    0.3456   -8.1364    0.0000 C   0  0  0  0  0  0  0  0  0  0  0  0
   -1.0344   -8.0778    0.0000 C   0  0  0  0  0  0  0  0  0  0  0  0
   -2.3847   -7.7868    0.0000 C   0  0  0  0  0  0  0  0  0  0  0  0
   -3.6663   -7.2717    0.0000 C   0  0  0  0  0  0  0  0  0  0  0  0
   -4.8425   -6.5475    0.0000 C   0  0  0  0  0  0  0  0  0  0  0  0
   -5.8794   -5.6350    0.0000 C   0  0  0  0  0  0  0  0  0  0  0  0
   -6.7472   -4.5603    0.0000 C   0  0  0  0  0  0  0  0  0  0  0  0
   -7.4208   -3.3544    0.0000 C   0  0  0  0  0  0  0  0  0  0  0  0
   -7.8809   -2.0520    0.0000 C   0  0  0  0  0  0  0  0  0  0  0  0
   -8.1144   -0.6906    0.0000 C   0  0  0  0  0  0  0  0  0  0  0  0
   -8.1144    0.6906    0.0000 C   0  0  0  0  0  0  0  0  0  0  0  0
   -7.8809    2.0520    0.0000 C   0  0  0  0  0  0  0  0  0  0  0  0
   -7.4208    3.3544    0.0000 C   0  0  0  0  0  0  0  0  0  0  0  0
   -6.7472    4.5603    0.0000 C   0  0  0  0  0  0  0  0  0  0  0  0
   -5.8794    5.6350    0.0000 C   0  0  0  0  0  0  0  0  0  0  0  0
   -4.8425    6.5475    0.0000 C   0  0  0  0  0  0  0  0  0  0  0  0
   -3.6663    7.2717    0.0000 C   0  0  0  0  0  0  0  0  0  0  0  0
   -2.3847    7.7868    0.0000 C   0  0  0  0  0  0  0  0  0  0  0  0
   -1.0344    8.0778    0.0000 C   0  0  0  0  0  0  0  0  0  0  0  0
    0.3456    8.1364    0.0000 C   0  0  0  0  0  0  0  0  0  0  0  0
    1.7157    7.9609    0.0000 C   0  0  0  0  0  0  0  0  0  0  0  0
    3.0364    7.5565    0.0000 C   0  0  0  0  0  0  0  0  0  0  0  0
    4.2698    6.9346    0.0000 C   0  0  0  0  0  0  0  0  0  0  0  0
    5.3804    6.1133    0.0000 C   0  0  0  0  0  0  0  0  0  0  0  0
    6.3361    5.1160    0.0000 C   0  0  0  0  0  0  0  0  0  0  0  0
    7.1096    3.9717    0.0000 C   0  0  0  0  0  0  0  0  0  0  0  0
    8.3385    2.9462    0.0000 C   0  0  0  0  0  0  0  0  0  0  0  0
  1  2  1  0
  2  3  1  0
  3  4  1  0
  4  5  1  0
  5  6  1  0
  6  7  1  0
  7  8  1  0
  8  9  1  0
  9 10  1  0
 10 11  1  0
 11 12  1  0
 12 13  1  0
 13 14  1  0
 14 15  1  0
 15 16  1  0
 16 17  1  0
 17 18  1  0
 18 19  1  0
 19 20  1  0
 20 21  1  0
 21 22  1  0
 22 23  1  0
 23 24  1  0
 24 25  1  0
 25 26  1  0
 26 27  1  0
 27 28  1  0
 28 29  1  0
 29 30  1  0
 30 31  1  0
 31 32  1  0
 32 33  1  0
 33 34  1  0
 34 35  1  0
 35 36  1  0
 36 37  1  0
 37 38  1  0
 38 39  1  0
 39 40  1  0
 40 41  1  0
 41 42  1  0
 42 43  1  0
 43 44  1  0
 44 45  1  0
 45 46  1  0
 46 47  1  0
 47 48  1  0
 48 49  1  0
 49 50  1  0
 50 51  1  0
 51 52  1  0
 52 53  1  0
 53 54  1  0
 54 55  2  0
 55 56  1  0
 56 57  2  0
 57 58  1  0
 58 59  2  0
 59 60  1  0
 60 61  2  0
 61 62  1  0
 62 63  2  0
 63 64  1  0
 64 65  2  0
 65 66  1  0
 66 67  2  0
 67 68  1  0
 68 69  2  0
 69 70  1  0
 70 71  2  0
 71 72  1  0
 72 73  2  0
 73 74  1  0
 74 75  2  0
 75 76  1  0
 76 77  2  0
 77 78  1  0
 78 79  2  0
 79 80  1  0
 80 81  2  0
 81 82  1  0
 82 83  2  0
 83 84  1  0
 84 85  2  0
 85 86  1  0
 86 87  2  0
 87 88  1  0
 88 89  2  0
 89  2  1  0
 89 53  1  0
M  END
>  <Title>  (694) 
idAAYTgen14

$$$$

     RDKit          2D

 16 17  0  0  0  0  0  0  0  0999 V2000
    3.0000   -5.1962    0.0000 O   0  0  0  0  0  0  0  0  0  0  0  0
    1.5000   -5.1962    0.0000 C   0  0  0  0  0  0  0  0  0  0  0  0
    0.7500   -6.4952    0.0000 C   0  0  0  0  0  0  0  0  0  0  0  0
    1.5000   -7.7942    0.0000 C   0  0  0  0  0  0  0  0  0  0  0  0
    2.9918   -7.9510    0.0000 C   0  0  0  0  0  0  0  0  0  0  0  0
    3.3037   -9.4182    0.0000 C   0  0  0  0  0  0  0  0  0  0  0  0
    2.0046  -10.1682    0.0000 C   0  0  0  0  0  0  0  0  0  0  0  0
    0.8899   -9.1645    0.0000 C   0  0  0  0  0  0  0  0  0  0  0  0
    0.7500   -3.8971    0.0000 N   0  0  0  0  0  0  0  0  0  0  0  0
    1.5000   -2.5981    0.0000 C   0  0  0  0  0  0  0  0  0  0  0  0
    0.7500   -1.2990    0.0000 C   0  0  0  0  0  0  0  0  0  0  0  0
    1.5000    0.0000    0.0000 C   0  0  0  0  0  0  0  0  0  0  0  0
    0.7500    1.2990    0.0000 C   0  0  0  0  0  0  0  0  0  0  0  0
   -0.7500    1.2990    0.0000 C   0  0  0  0  0  0  0  0  0  0  0  0
   -1.5000    0.0000    0.0000 C   0  0  0  0  0  0  0  0  0  0  0  0
   -0.7500   -1.2990    0.0000 C   0  0  0  0  0  0  0  0  0  0  0  0
  1  2  1  0
  2  3  1  0
  3  4  1  0
  4  5  2  0
  5  6  1  0
  6  7  1  0
  7  8  2  0
  2  9  1  0
  9 10  1  0
 10 11  1  0
 11 12  2  0
 12 13  1  0
 13 14  2  0
 14 15  1  0
 15 16  2  0
  8  4  1  0
 16 11  1  0
M  END
>  <Title>  (695) 
idAAYUgen14

$$$$

     RDKit          2D

 15 15  0  0  0  0  0  0  0  0999 V2000
    9.7500   -3.8971    0.0000 C   0  0  0  0  0  0  0  0  0  0  0  0
    8.2500   -3.8971    0.0000 C   0  0  0  0  0  0  0  0  0  0  0  0
    7.5000   -5.1962    0.0000 C   0  0  0  0  0  0  0  0  0  0  0  0
    7.5000   -2.5981    0.0000 C   0  0  0  0  0  0  0  0  0  0  0  0
    6.0000   -2.5981    0.0000 O   0  0  0  0  0  0  0  0  0  0  0  0
    5.2500   -1.2990    0.0000 C   0  0  0  0  0  0  0  0  0  0  0  0
    6.0000    0.0000    0.0000 O   0  0  0  0  0  0  0  0  0  0  0  0
    3.7500   -1.2990    0.0000 N   0  0  0  0  0  0  0  0  0  0  0  0
    3.0000    0.0000    0.0000 C   0  0  0  0  0  0  0  0  0  0  0  0
    1.5000    0.0000    0.0000 C   0  0  0  0  0  0  0  0  0  0  0  0
    0.7500   -1.2990    0.0000 C   0  0  0  0  0  0  0  0  0  0  0  0
   -0.7500   -1.2990    0.0000 C   0  0  0  0  0  0  0  0  0  0  0  0
   -1.5000    0.0000    0.0000 C   0  0  0  0  0  0  0  0  0  0  0  0
   -0.7500    1.2990    0.0000 N   0  0  0  0  0  0  0  0  0  0  0  0
    0.7500    1.2990    0.0000 C   0  0  0  0  0  0  0  0  0  0  0  0
  1  2  1  0
  2  3  1  0
  2  4  1  0
  4  5  1  0
  5  6  1  0
  6  7  2  0
  6  8  1  0
  8  9  1  0
  9 10  1  0
 10 11  2  0
 11 12  1  0
 12 13  2  0
 13 14  1  0
 14 15  2  0
 15 10  1  0
M  END
>  <Title>  (696) 
idAAYVgen14

$$$$

     RDKit          2D

 11 11  0  0  0  0  0  0  0  0999 V2000
   10.2760   -0.0000    0.0000 C   0  0  0  0  0  0  0  0  0  0  0  0
    8.7760   -0.0000    0.0000 C   0  0  0  0  0  0  0  0  0  0  0  0
    7.2760   -0.0000    0.0000 C   0  0  0  0  0  0  0  0  0  0  0  0
    5.7760   -0.0000    0.0000 C   0  0  0  0  0  0  0  0  0  0  0  0
    4.2760   -0.0000    0.0000 C   0  0  0  0  0  0  0  0  0  0  0  0
    2.7760    0.0000    0.0000 C   0  0  0  0  0  0  0  0  0  0  0  0
    1.2760    0.0000    0.0000 C   0  0  0  0  0  0  0  0  0  0  0  0
    0.3943    1.2135    0.0000 C   0  0  0  0  0  0  0  0  0  0  0  0
   -1.0323    0.7500    0.0000 C   0  0  0  0  0  0  0  0  0  0  0  0
   -1.0323   -0.7500    0.0000 C   0  0  0  0  0  0  0  0  0  0  0  0
    0.3943   -1.2135    0.0000 C   0  0  0  0  0  0  0  0  0  0  0  0
  1  2  3  0
  2  3  1  0
  3  4  3  0
  4  5  1  0
  5  6  3  0
  6  7  1  0
  7  8  2  0
  8  9  1  0
  9 10  2  0
 10 11  1  0
 11  7  1  0
M  END
>  <Title>  (697) 
idAAYWgen14

$$$$

     RDKit          2D

 45 50  0  0  0  0  0  0  0  0999 V2000
   -8.3600    1.6477    0.0000 C   0  0  0  0  0  0  0  0  0  0  0  0
   -6.8928    1.9596    0.0000 C   0  0  0  0  0  0  0  0  0  0  0  0
   -6.4292    3.3862    0.0000 C   0  0  0  0  0  0  0  0  0  0  0  0
   -5.8891    0.8449    0.0000 C   0  0  0  0  0  0  0  0  0  0  0  0
   -4.4218    1.1568    0.0000 C   0  0  0  0  0  0  0  0  0  0  0  0
   -3.9583    2.5833    0.0000 C   0  0  0  0  0  0  0  0  0  0  0  0
   -3.4182    0.0420    0.0000 N   0  0  0  0  0  0  0  0  0  0  0  0
   -3.8817   -1.3846    0.0000 C   0  0  0  0  0  0  0  0  0  0  0  0
   -5.3083   -1.8481    0.0000 N   0  0  0  0  0  0  0  0  0  0  0  0
   -5.3083   -3.3481    0.0000 N   0  0  0  0  0  0  0  0  0  0  0  0
   -3.8817   -3.8116    0.0000 N   0  0  0  0  0  0  0  0  0  0  0  0
   -3.0000   -2.5981    0.0000 N   0  0  0  0  0  0  0  0  0  0  0  0
   -1.5000   -2.5981    0.0000 C   0  0  0  0  0  0  0  0  0  0  0  0
   -0.7500   -3.8971    0.0000 C   0  0  0  0  0  0  0  0  0  0  0  0
    0.7500   -3.8971    0.0000 C   0  0  0  0  0  0  0  0  0  0  0  0
    1.5000   -2.5981    0.0000 C   0  0  0  0  0  0  0  0  0  0  0  0
    3.0000   -2.5981    0.0000 C   0  0  0  0  0  0  0  0  0  0  0  0
    3.7500   -1.2990    0.0000 O   0  0  0  0  0  0  0  0  0  0  0  0
    3.7500   -3.8971    0.0000 N   0  0  0  0  0  0  0  0  0  0  0  0
    5.2500   -3.8971    0.0000 C   0  0  0  0  0  0  0  0  0  0  0  0
    6.1317   -2.6836    0.0000 N   0  0  0  0  0  0  0  0  0  0  0  0
    7.5583   -3.1471    0.0000 N   0  0  0  0  0  0  0  0  0  0  0  0
    7.5583   -4.6471    0.0000 N   0  0  0  0  0  0  0  0  0  0  0  0
    6.1317   -5.1106    0.0000 N   0  0  0  0  0  0  0  0  0  0  0  0
    5.6682   -6.5372    0.0000 N   0  0  0  0  0  0  0  0  0  0  0  0
    6.5498   -7.7508    0.0000 C   0  0  0  0  0  0  0  0  0  0  0  0
    5.6682   -8.9643    0.0000 C   0  0  0  0  0  0  0  0  0  0  0  0
    4.2416   -8.5008    0.0000 N   0  0  0  0  0  0  0  0  0  0  0  0
    3.0280   -9.3824    0.0000 C   0  0  0  0  0  0  0  0  0  0  0  0
    3.1848  -10.8742    0.0000 O   0  0  0  0  0  0  0  0  0  0  0  0
    1.6577   -8.7723    0.0000 N   0  0  0  0  0  0  0  0  0  0  0  0
    0.4442   -9.6540    0.0000 C   0  0  0  0  0  0  0  0  0  0  0  0
   -0.9261   -9.0439    0.0000 N   0  0  0  0  0  0  0  0  0  0  0  0
   -2.1396   -9.9256    0.0000 N   0  0  0  0  0  0  0  0  0  0  0  0
   -1.9829  -11.4174    0.0000 N   0  0  0  0  0  0  0  0  0  0  0  0
   -0.6125  -12.0275    0.0000 N   0  0  0  0  0  0  0  0  0  0  0  0
    0.6010  -11.1458    0.0000 N   0  0  0  0  0  0  0  0  0  0  0  0
    4.2416   -7.0008    0.0000 C   0  0  0  0  0  0  0  0  0  0  0  0
    3.0280   -6.1191    0.0000 O   0  0  0  0  0  0  0  0  0  0  0  0
    0.7500   -1.2990    0.0000 C   0  0  0  0  0  0  0  0  0  0  0  0
    1.5000    0.0000    0.0000 C   0  0  0  0  0  0  0  0  0  0  0  0
    0.7500    1.2990    0.0000 C   0  0  0  0  0  0  0  0  0  0  0  0
   -0.7500    1.2990    0.0000 C   0  0  0  0  0  0  0  0  0  0  0  0
   -1.5000    0.0000    0.0000 C   0  0  0  0  0  0  0  0  0  0  0  0
   -0.7500   -1.2990    0.0000 C   0  0  0  0  0  0  0  0  0  0  0  0
  1  2  1  0
  2  3  1  0
  2  4  1  0
  4  5  1  0
  5  6  1  0
  5  7  1  0
  7  8  1  0
  8  9  2  0
  9 10  1  0
 10 11  2  0
 11 12  1  0
 12 13  1  0
 13 14  2  0
 14 15  1  0
 15 16  2  0
 16 17  1  0
 17 18  2  0
 17 19  1  0
 19 20  1  0
 20 21  2  0
 21 22  1  0
 22 23  2  0
 23 24  1  0
 24 25  1  0
 25 26  1  0
 26 27  1  0
 27 28  1  0
 28 29  1  0
 29 30  2  0
 29 31  1  0
 31 32  1  0
 32 33  2  0
 33 34  1  0
 34 35  2  0
 35 36  1  0
 36 37  2  0
 28 38  1  0
 38 39  2  0
 16 40  1  0
 40 41  2  0
 41 42  1  0
 42 43  2  0
 43 44  1  0
 44 45  2  0
 12  8  1  0
 45 13  1  0
 24 20  1  0
 38 25  1  0
 45 40  1  0
 37 32  1  0
M  END
>  <Title>  (698) 
idAAYXgen14

$$$$

     RDKit          2D

  8  8  0  0  0  0  0  0  0  0999 V2000
    3.0000    0.0000    0.0000 C   0  0  0  0  0  0  0  0  0  0  0  0
    1.5000    0.0000    0.0000 C   0  0  0  0  0  0  0  0  0  0  0  0
    0.7500   -1.2990    0.0000 C   0  0  0  0  0  0  0  0  0  0  0  0
   -0.7500   -1.2990    0.0000 C   0  0  0  0  0  0  0  0  0  0  0  0
   -1.5000    0.0000    0.0000 C   0  0  0  0  0  0  0  0  0  0  0  0
   -0.7500    1.2990    0.0000 C   0  0  0  0  0  0  0  0  0  0  0  0
    0.7500    1.2990    0.0000 C   0  0  0  0  0  0  0  0  0  0  0  0
    1.5000    2.5981    0.0000 O   0  0  0  0  0  0  0  0  0  0  0  0
  1  2  1  0
  2  3  1  0
  3  4  1  0
  4  5  1  0
  5  6  1  0
  6  7  1  0
  7  8  1  0
  7  2  1  0
M  END
>  <Title>  (699) 
idAAYYgen14

$$$$

     RDKit          2D

 35 39  0  0  0  0  0  0  0  0999 V2000
   -3.1476   -2.1380    0.0000 C   0  0  0  0  0  0  0  0  0  0  0  0
   -1.6852   -2.4718    0.0000 C   0  0  0  0  0  0  0  0  0  0  0  0
   -1.3515   -3.9342    0.0000 C   0  0  0  0  0  0  0  0  0  0  0  0
   -0.0000   -4.5850    0.0000 C   0  0  0  0  0  0  0  0  0  0  0  0
    1.3515   -3.9342    0.0000 C   0  0  0  0  0  0  0  0  0  0  0  0
    1.6852   -2.4718    0.0000 C   0  0  0  0  0  0  0  0  0  0  0  0
    3.1476   -2.1380    0.0000 O   0  0  0  0  0  0  0  0  0  0  0  0
    4.1679   -3.2376    0.0000 C   0  0  0  0  0  0  0  0  0  0  0  0
    3.7258   -4.6709    0.0000 O   0  0  0  0  0  0  0  0  0  0  0  0
    5.6303   -2.9038    0.0000 N   0  0  0  0  0  0  0  0  0  0  0  0
    6.6505   -4.0034    0.0000 C   0  0  0  0  0  0  0  0  0  0  0  0
    8.1398   -3.8243    0.0000 N   0  0  0  0  0  0  0  0  0  0  0  0
    8.7703   -5.1853    0.0000 N   0  0  0  0  0  0  0  0  0  0  0  0
    7.6708   -6.2056    0.0000 N   0  0  0  0  0  0  0  0  0  0  0  0
    6.3607   -5.4751    0.0000 N   0  0  0  0  0  0  0  0  0  0  0  0
    4.9996   -6.1056    0.0000 N   0  0  0  0  0  0  0  0  0  0  0  0
    3.5914   -5.5891    0.0000 C   0  0  0  0  0  0  0  0  0  0  0  0
    3.0748   -6.9973    0.0000 C   0  0  0  0  0  0  0  0  0  0  0  0
    1.7138   -7.6279    0.0000 C   0  0  0  0  0  0  0  0  0  0  0  0
    0.4872   -6.7645    0.0000 O   0  0  0  0  0  0  0  0  0  0  0  0
    1.5793   -9.1218    0.0000 N   0  0  0  0  0  0  0  0  0  0  0  0
    0.2183   -9.7524    0.0000 C   0  0  0  0  0  0  0  0  0  0  0  0
   -1.0083   -8.8890    0.0000 N   0  0  0  0  0  0  0  0  0  0  0  0
   -2.3693   -9.5195    0.0000 N   0  0  0  0  0  0  0  0  0  0  0  0
   -2.5038  -11.0135    0.0000 N   0  0  0  0  0  0  0  0  0  0  0  0
   -1.2772  -11.8769    0.0000 N   0  0  0  0  0  0  0  0  0  0  0  0
    0.0838  -11.2463    0.0000 N   0  0  0  0  0  0  0  0  0  0  0  0
    4.4831   -7.5139    0.0000 C   0  0  0  0  0  0  0  0  0  0  0  0
    5.1136   -8.8749    0.0000 O   0  0  0  0  0  0  0  0  0  0  0  0
    0.7500   -1.2990    0.0000 C   0  0  0  0  0  0  0  0  0  0  0  0
    1.5000    0.0000    0.0000 C   0  0  0  0  0  0  0  0  0  0  0  0
    0.7500    1.2990    0.0000 C   0  0  0  0  0  0  0  0  0  0  0  0
   -0.7500    1.2990    0.0000 C   0  0  0  0  0  0  0  0  0  0  0  0
   -1.5000    0.0000    0.0000 C   0  0  0  0  0  0  0  0  0  0  0  0
   -0.7500   -1.2990    0.0000 C   0  0  0  0  0  0  0  0  0  0  0  0
  1  2  1  0
  2  3  1  0
  3  4  1  0
  4  5  1  0
  5  6  2  0
  6  7  1  0
  7  8  1  0
  8  9  2  0
  8 10  1  0
 10 11  1  0
 11 12  2  0
 12 13  1  0
 13 14  2  0
 14 15  1  0
 15 16  1  0
 16 17  1  0
 17 18  2  0
 18 19  1  0
 19 20  2  0
 19 21  1  0
 21 22  1  0
 22 23  2  0
 23 24  1  0
 24 25  2  0
 25 26  1  0
 26 27  2  0
 18 28  1  0
 28 29  2  0
  6 30  1  0
 30 31  2  0
 31 32  1  0
 32 33  2  0
 33 34  1  0
 34 35  2  0
 35  2  1  0
 15 11  1  0
 28 16  1  0
 35 30  1  0
 27 22  1  0
M  END
>  <Title>  (700) 
idAAYZgen14

$$$$

     RDKit          2D

 35 39  0  0  0  0  0  0  0  0999 V2000
    8.2500    3.8971    0.0000 C   0  0  0  0  0  0  0  0  0  0  0  0
    7.5000    2.5981    0.0000 C   0  0  0  0  0  0  0  0  0  0  0  0
    8.2500    1.2990    0.0000 C   0  0  0  0  0  0  0  0  0  0  0  0
    7.5000    0.0000    0.0000 C   0  0  0  0  0  0  0  0  0  0  0  0
    6.0000    0.0000    0.0000 C   0  0  0  0  0  0  0  0  0  0  0  0
    5.2500   -1.2990    0.0000 O   0  0  0  0  0  0  0  0  0  0  0  0
    6.0000   -2.5981    0.0000 C   0  0  0  0  0  0  0  0  0  0  0  0
    7.5000   -2.5981    0.0000 O   0  0  0  0  0  0  0  0  0  0  0  0
    5.2500   -3.8971    0.0000 N   0  0  0  0  0  0  0  0  0  0  0  0
    6.0000   -5.1962    0.0000 C   0  0  0  0  0  0  0  0  0  0  0  0
    7.4918   -5.3529    0.0000 N   0  0  0  0  0  0  0  0  0  0  0  0
    7.8037   -6.8202    0.0000 N   0  0  0  0  0  0  0  0  0  0  0  0
    6.5046   -7.5702    0.0000 N   0  0  0  0  0  0  0  0  0  0  0  0
    5.3899   -6.5665    0.0000 N   0  0  0  0  0  0  0  0  0  0  0  0
    3.9227   -6.8783    0.0000 C   0  0  0  0  0  0  0  0  0  0  0  0
    2.8080   -5.8746    0.0000 C   0  0  0  0  0  0  0  0  0  0  0  0
    1.5089   -6.6246    0.0000 C   0  0  0  0  0  0  0  0  0  0  0  0
    1.8208   -8.0919    0.0000 C   0  0  0  0  0  0  0  0  0  0  0  0
    0.8171   -9.2066    0.0000 C   0  0  0  0  0  0  0  0  0  0  0  0
    1.2806  -10.6332    0.0000 O   0  0  0  0  0  0  0  0  0  0  0  0
   -0.6501   -8.8947    0.0000 N   0  0  0  0  0  0  0  0  0  0  0  0
   -1.6538  -10.0094    0.0000 C   0  0  0  0  0  0  0  0  0  0  0  0
   -1.1903  -11.4360    0.0000 N   0  0  0  0  0  0  0  0  0  0  0  0
   -2.1940  -12.5507    0.0000 N   0  0  0  0  0  0  0  0  0  0  0  0
   -3.6612  -12.2389    0.0000 N   0  0  0  0  0  0  0  0  0  0  0  0
   -4.1247  -10.8123    0.0000 N   0  0  0  0  0  0  0  0  0  0  0  0
   -3.1210   -9.6976    0.0000 N   0  0  0  0  0  0  0  0  0  0  0  0
    3.3126   -8.2487    0.0000 C   0  0  0  0  0  0  0  0  0  0  0  0
    4.0626   -9.5477    0.0000 O   0  0  0  0  0  0  0  0  0  0  0  0
    5.2500    1.2990    0.0000 C   0  0  0  0  0  0  0  0  0  0  0  0
    3.7500    1.2990    0.0000 C   0  0  0  0  0  0  0  0  0  0  0  0
    3.0000    2.5981    0.0000 C   0  0  0  0  0  0  0  0  0  0  0  0
    3.7500    3.8971    0.0000 C   0  0  0  0  0  0  0  0  0  0  0  0
    5.2500    3.8971    0.0000 C   0  0  0  0  0  0  0  0  0  0  0  0
    6.0000    2.5981    0.0000 C   0  0  0  0  0  0  0  0  0  0  0  0
  1  2  1  0
  2  3  1  0
  3  4  2  0
  4  5  1  0
  5  6  1  0
  6  7  1  0
  7  8  2  0
  7  9  1  0
  9 10  1  0
 10 11  2  0
 11 12  1  0
 12 13  2  0
 13 14  1  0
 14 15  1  0
 15 16  2  0
 16 17  1  0
 17 18  2  0
 18 19  1  0
 19 20  2  0
 19 21  1  0
 21 22  1  0
 22 23  2  0
 23 24  1  0
 24 25  2  0
 25 26  1  0
 26 27  2  0
 18 28  1  0
 28 29  2  0
  5 30  1  0
 30 31  2  0
 31 32  1  0
 32 33  2  0
 33 34  1  0
 34 35  2  0
 35  2  1  0
 14 10  1  0
 28 15  1  0
 35 30  1  0
 27 22  1  0
M  END
>  <Title>  (701) 
idAAZAgen14

$$$$

     RDKit          2D

  7  6  0  0  0  0  0  0  0  0999 V2000
    0.0000    0.0000    0.0000 C   0  0  0  0  0  0  0  0  0  0  0  0
    1.2990    0.7500    0.0000 C   0  0  0  0  0  0  0  0  0  0  0  0
    2.5981   -0.0000    0.0000 C   0  0  0  0  0  0  0  0  0  0  0  0
    3.8971    0.7500    0.0000 N   0  0  0  0  0  0  0  0  0  0  0  0
    5.1962   -0.0000    0.0000 C   0  0  0  0  0  0  0  0  0  0  0  0
    6.4952    0.7500    0.0000 C   0  0  0  0  0  0  0  0  0  0  0  0
    7.7942   -0.0000    0.0000 C   0  0  0  0  0  0  0  0  0  0  0  0
  1  2  1  0
  2  3  1  0
  3  4  1  0
  4  5  1  0
  5  6  1  0
  6  7  1  0
M  END
>  <Title>  (702) 
idAAZBgen14

$$$$

     RDKit          2D

  5  5  0  0  0  0  0  0  0  0999 V2000
    1.2760    0.0000    0.0000 C   0  0  0  0  0  0  0  0  0  0  0  0
    0.3943    1.2135    0.0000 C   0  0  0  0  0  0  0  0  0  0  0  0
   -1.0323    0.7500    0.0000 C   0  0  0  0  0  0  0  0  0  0  0  0
   -1.0323   -0.7500    0.0000 C   0  0  0  0  0  0  0  0  0  0  0  0
    0.3943   -1.2135    0.0000 C   0  0  0  0  0  0  0  0  0  0  0  0
  1  2  2  0
  2  3  1  0
  3  4  1  0
  4  5  2  0
  5  1  1  0
M  END
>  <Title>  (703) 
idAAZCgen14

$$$$

     RDKit          2D

 43 48  0  0  0  0  0  0  0  0999 V2000
   -3.7860   -5.5823    0.0000 C   0  0  0  0  0  0  0  0  0  0  0  0
   -2.4215   -4.9592    0.0000 C   0  0  0  0  0  0  0  0  0  0  0  0
   -1.4392   -6.0928    0.0000 C   0  0  0  0  0  0  0  0  0  0  0  0
   -0.0000   -6.5154    0.0000 C   0  0  0  0  0  0  0  0  0  0  0  0
    1.4392   -6.0928    0.0000 C   0  0  0  0  0  0  0  0  0  0  0  0
    2.4215   -4.9592    0.0000 C   0  0  0  0  0  0  0  0  0  0  0  0
    2.6350   -3.4744    0.0000 C   0  0  0  0  0  0  0  0  0  0  0  0
    2.0119   -2.1100    0.0000 C   0  0  0  0  0  0  0  0  0  0  0  0
    3.1455   -1.1277    0.0000 C   0  0  0  0  0  0  0  0  0  0  0  0
    2.8616    0.3452    0.0000 O   0  0  0  0  0  0  0  0  0  0  0  0
    4.5630   -1.6183    0.0000 N   0  0  0  0  0  0  0  0  0  0  0  0
    5.6966   -0.6360    0.0000 C   0  0  0  0  0  0  0  0  0  0  0  0
    5.5683    0.8585    0.0000 N   0  0  0  0  0  0  0  0  0  0  0  0
    6.9500    1.4424    0.0000 N   0  0  0  0  0  0  0  0  0  0  0  0
    7.9322    0.3088    0.0000 N   0  0  0  0  0  0  0  0  0  0  0  0
    7.1576   -0.9758    0.0000 N   0  0  0  0  0  0  0  0  0  0  0  0
    7.7416   -2.3574    0.0000 N   0  0  0  0  0  0  0  0  0  0  0  0
    9.2026   -2.6972    0.0000 C   0  0  0  0  0  0  0  0  0  0  0  0
    9.3309   -4.1917    0.0000 C   0  0  0  0  0  0  0  0  0  0  0  0
    7.9492   -4.7756    0.0000 N   0  0  0  0  0  0  0  0  0  0  0  0
    7.6095   -6.2366    0.0000 C   0  0  0  0  0  0  0  0  0  0  0  0
    8.7049   -7.2614    0.0000 O   0  0  0  0  0  0  0  0  0  0  0  0
    6.1744   -6.6729    0.0000 N   0  0  0  0  0  0  0  0  0  0  0  0
    5.8346   -8.1339    0.0000 C   0  0  0  0  0  0  0  0  0  0  0  0
    4.3995   -8.5702    0.0000 N   0  0  0  0  0  0  0  0  0  0  0  0
    4.0597  -10.0312    0.0000 N   0  0  0  0  0  0  0  0  0  0  0  0
    5.1551  -11.0560    0.0000 N   0  0  0  0  0  0  0  0  0  0  0  0
    6.5903  -10.6197    0.0000 N   0  0  0  0  0  0  0  0  0  0  0  0
    6.9300   -9.1587    0.0000 N   0  0  0  0  0  0  0  0  0  0  0  0
    6.9670   -3.6420    0.0000 C   0  0  0  0  0  0  0  0  0  0  0  0
    5.4725   -3.7703    0.0000 O   0  0  0  0  0  0  0  0  0  0  0  0
    0.7500   -1.2990    0.0000 C   0  0  0  0  0  0  0  0  0  0  0  0
    1.5000    0.0000    0.0000 C   0  0  0  0  0  0  0  0  0  0  0  0
    0.7500    1.2990    0.0000 C   0  0  0  0  0  0  0  0  0  0  0  0
   -0.7500    1.2990    0.0000 C   0  0  0  0  0  0  0  0  0  0  0  0
   -1.5000    0.0000    0.0000 C   0  0  0  0  0  0  0  0  0  0  0  0
   -0.7500   -1.2990    0.0000 C   0  0  0  0  0  0  0  0  0  0  0  0
   -2.0119   -2.1100    0.0000 C   0  0  0  0  0  0  0  0  0  0  0  0
   -2.8820   -0.8881    0.0000 C   0  0  0  0  0  0  0  0  0  0  0  0
   -4.3752   -1.0307    0.0000 C   0  0  0  0  0  0  0  0  0  0  0  0
   -4.9983   -2.3952    0.0000 C   0  0  0  0  0  0  0  0  0  0  0  0
   -4.1282   -3.6170    0.0000 C   0  0  0  0  0  0  0  0  0  0  0  0
   -2.6350   -3.4744    0.0000 C   0  0  0  0  0  0  0  0  0  0  0  0
  1  2  1  0
  2  3  1  0
  3  4  1  0
  4  5  1  0
  5  6  1  0
  6  7  1  0
  7  8  1  0
  8  9  1  0
  9 10  2  0
  9 11  1  0
 11 12  1  0
 12 13  2  0
 13 14  1  0
 14 15  2  0
 15 16  1  0
 16 17  1  0
 17 18  1  0
 18 19  1  0
 19 20  1  0
 20 21  1  0
 21 22  2  0
 21 23  1  0
 23 24  1  0
 24 25  2  0
 25 26  1  0
 26 27  2  0
 27 28  1  0
 28 29  2  0
 20 30  1  0
 30 31  2  0
  8 32  1  0
 32 33  2  0
 33 34  1  0
 34 35  2  0
 35 36  1  0
 36 37  2  0
 37 38  1  0
 38 39  2  0
 39 40  1  0
 40 41  2  0
 41 42  1  0
 42 43  2  0
 43  2  1  0
 16 12  1  0
 30 17  1  0
 37 32  1  0
 43 38  1  0
 29 24  1  0
M  END
>  <Title>  (704) 
idAAZDgen14

$$$$

     RDKit          2D

 43 47  0  0  0  0  0  0  0  0999 V2000
   -3.1455   -1.1277    0.0000 C   0  0  0  0  0  0  0  0  0  0  0  0
   -2.0119   -2.1100    0.0000 C   0  0  0  0  0  0  0  0  0  0  0  0
   -2.6350   -3.4744    0.0000 C   0  0  0  0  0  0  0  0  0  0  0  0
   -2.4215   -4.9592    0.0000 C   0  0  0  0  0  0  0  0  0  0  0  0
   -1.4392   -6.0928    0.0000 C   0  0  0  0  0  0  0  0  0  0  0  0
   -0.0000   -6.5154    0.0000 C   0  0  0  0  0  0  0  0  0  0  0  0
    1.4392   -6.0928    0.0000 C   0  0  0  0  0  0  0  0  0  0  0  0
    2.4215   -4.9592    0.0000 C   0  0  0  0  0  0  0  0  0  0  0  0
    3.7860   -5.5823    0.0000 C   0  0  0  0  0  0  0  0  0  0  0  0
    5.0078   -4.7122    0.0000 O   0  0  0  0  0  0  0  0  0  0  0  0
    3.9286   -7.0755    0.0000 N   0  0  0  0  0  0  0  0  0  0  0  0
    5.2930   -7.6986    0.0000 C   0  0  0  0  0  0  0  0  0  0  0  0
    6.5991   -6.9610    0.0000 N   0  0  0  0  0  0  0  0  0  0  0  0
    7.7042   -7.9753    0.0000 N   0  0  0  0  0  0  0  0  0  0  0  0
    7.0811   -9.3397    0.0000 N   0  0  0  0  0  0  0  0  0  0  0  0
    5.5909   -9.1688    0.0000 N   0  0  0  0  0  0  0  0  0  0  0  0
    4.5766  -10.2739    0.0000 C   0  0  0  0  0  0  0  0  0  0  0  0
    4.8745  -11.7440    0.0000 C   0  0  0  0  0  0  0  0  0  0  0  0
    3.5684  -12.4816    0.0000 C   0  0  0  0  0  0  0  0  0  0  0  0
    2.4633  -11.4673    0.0000 C   0  0  0  0  0  0  0  0  0  0  0  0
    0.9932  -11.7652    0.0000 O   0  0  0  0  0  0  0  0  0  0  0  0
    0.0001  -10.6410    0.0000 C   0  0  0  0  0  0  0  0  0  0  0  0
    0.4772   -9.2189    0.0000 O   0  0  0  0  0  0  0  0  0  0  0  0
   -1.4700  -10.9389    0.0000 N   0  0  0  0  0  0  0  0  0  0  0  0
   -2.4630   -9.8147    0.0000 C   0  0  0  0  0  0  0  0  0  0  0  0
   -1.9860   -8.3925    0.0000 N   0  0  0  0  0  0  0  0  0  0  0  0
   -2.9790   -7.2683    0.0000 N   0  0  0  0  0  0  0  0  0  0  0  0
   -4.4491   -7.5662    0.0000 N   0  0  0  0  0  0  0  0  0  0  0  0
   -4.9262   -8.9883    0.0000 N   0  0  0  0  0  0  0  0  0  0  0  0
   -3.9332  -10.1125    0.0000 N   0  0  0  0  0  0  0  0  0  0  0  0
    3.0864  -10.1029    0.0000 C   0  0  0  0  0  0  0  0  0  0  0  0
    2.3488   -8.7968    0.0000 O   0  0  0  0  0  0  0  0  0  0  0  0
    2.6350   -3.4744    0.0000 C   0  0  0  0  0  0  0  0  0  0  0  0
    4.1197   -3.2610    0.0000 O   0  0  0  0  0  0  0  0  0  0  0  0
    2.0119   -2.1100    0.0000 O   0  0  0  0  0  0  0  0  0  0  0  0
    0.7500   -1.2990    0.0000 C   0  0  0  0  0  0  0  0  0  0  0  0
    1.5000    0.0000    0.0000 C   0  0  0  0  0  0  0  0  0  0  0  0
    0.7500    1.2990    0.0000 C   0  0  0  0  0  0  0  0  0  0  0  0
   -0.7500    1.2990    0.0000 C   0  0  0  0  0  0  0  0  0  0  0  0
   -1.5000    2.5981    0.0000 C   0  0  0  0  0  0  0  0  0  0  0  0
   -2.2500    3.8971    0.0000 N   0  0  0  0  0  0  0  0  0  0  0  0
   -1.5000    0.0000    0.0000 C   0  0  0  0  0  0  0  0  0  0  0  0
   -0.7500   -1.2990    0.0000 C   0  0  0  0  0  0  0  0  0  0  0  0
  1  2  1  0
  2  3  1  0
  3  4  1  0
  4  5  1  0
  5  6  1  0
  6  7  1  0
  7  8  2  0
  8  9  1  0
  9 10  2  0
  9 11  1  0
 11 12  1  0
 12 13  2  0
 13 14  1  0
 14 15  2  0
 15 16  1  0
 16 17  1  0
 17 18  2  0
 18 19  1  0
 19 20  2  0
 20 21  1  0
 21 22  1  0
 22 23  2  0
 22 24  1  0
 24 25  1  0
 25 26  2  0
 26 27  1  0
 27 28  2  0
 28 29  1  0
 29 30  2  0
 20 31  1  0
 31 32  2  0
  8 33  1  0
 33 34  2  0
 33 35  1  0
 35 36  1  0
 36 37  2  0
 37 38  1  0
 38 39  2  0
 39 40  1  0
 40 41  3  0
 39 42  1  0
 42 43  2  0
 43  2  1  0
 16 12  1  0
 31 17  1  0
 43 36  1  0
 30 25  1  0
M  END
>  <Title>  (705) 
idAAZEgen14

$$$$

     RDKit          2D

  6  5  0  0  0  0  0  0  0  0999 V2000
    0.0000    0.0000    0.0000 C   0  0  0  0  0  0  0  0  0  0  0  0
    1.2990    0.7500    0.0000 C   0  0  0  0  0  0  0  0  0  0  0  0
    2.5981   -0.0000    0.0000 N   0  0  0  0  0  0  0  0  0  0  0  0
    3.8971    0.7500    0.0000 C   0  0  0  0  0  0  0  0  0  0  0  0
    5.1962   -0.0000    0.0000 C   0  0  0  0  0  0  0  0  0  0  0  0
    6.4952    0.7500    0.0000 C   0  0  0  0  0  0  0  0  0  0  0  0
  1  2  2  0
  2  3  1  0
  3  4  1  0
  4  5  1  0
  5  6  1  0
M  END
>  <Title>  (706) 
idAAZFgen14

$$$$

     RDKit          2D

 10  9  0  0  0  0  0  0  0  0999 V2000
    0.0000    0.0000    0.0000 C   0  0  0  0  0  0  0  0  0  0  0  0
    1.2990    0.7500    0.0000 C   0  0  0  0  0  0  0  0  0  0  0  0
    2.5981   -0.0000    0.0000 C   0  0  0  0  0  0  0  0  0  0  0  0
    3.8971    0.7500    0.0000 N   0  0  0  0  0  0  0  0  0  0  0  0
    5.1962   -0.0000    0.0000 N   0  0  0  0  0  0  0  0  0  0  0  0
    6.4952    0.7500    0.0000 C   0  0  0  0  0  0  0  0  0  0  0  0
    6.4952    2.2500    0.0000 O   0  0  0  0  0  0  0  0  0  0  0  0
    7.7942   -0.0000    0.0000 C   0  0  0  0  0  0  0  0  0  0  0  0
    9.0933    0.7500    0.0000 C   0  0  0  0  0  0  0  0  0  0  0  0
   10.3923   -0.0000    0.0000 C   0  0  0  0  0  0  0  0  0  0  0  0
  1  2  1  0
  2  3  2  3
  3  4  1  0
  4  5  1  0
  5  6  1  0
  6  7  2  0
  6  8  1  0
  8  9  1  0
  9 10  1  0
M  END
>  <Title>  (707) 
idAAZGgen14

$$$$

     RDKit          2D

 34 38  0  0  0  0  0  0  0  0999 V2000
   10.0051   -0.5013    0.0000 C   0  0  0  0  0  0  0  0  0  0  0  0
    8.5134   -0.6581    0.0000 C   0  0  0  0  0  0  0  0  0  0  0  0
    7.7634   -1.9571    0.0000 C   0  0  0  0  0  0  0  0  0  0  0  0
    6.2961   -1.6453    0.0000 C   0  0  0  0  0  0  0  0  0  0  0  0
    5.1814   -2.6490    0.0000 O   0  0  0  0  0  0  0  0  0  0  0  0
    5.4933   -4.1162    0.0000 C   0  0  0  0  0  0  0  0  0  0  0  0
    6.9199   -4.5797    0.0000 O   0  0  0  0  0  0  0  0  0  0  0  0
    4.3786   -5.1199    0.0000 N   0  0  0  0  0  0  0  0  0  0  0  0
    4.6904   -6.5871    0.0000 C   0  0  0  0  0  0  0  0  0  0  0  0
    6.0607   -7.1972    0.0000 N   0  0  0  0  0  0  0  0  0  0  0  0
    5.9040   -8.6890    0.0000 N   0  0  0  0  0  0  0  0  0  0  0  0
    4.4367   -9.0009    0.0000 N   0  0  0  0  0  0  0  0  0  0  0  0
    3.6867   -7.7018    0.0000 N   0  0  0  0  0  0  0  0  0  0  0  0
    2.1950   -7.5450    0.0000 N   0  0  0  0  0  0  0  0  0  0  0  0
    1.4450   -6.2460    0.0000 C   0  0  0  0  0  0  0  0  0  0  0  0
   -0.0223   -6.5579    0.0000 C   0  0  0  0  0  0  0  0  0  0  0  0
   -0.1791   -8.0497    0.0000 C   0  0  0  0  0  0  0  0  0  0  0  0
   -1.4781   -8.7997    0.0000 C   0  0  0  0  0  0  0  0  0  0  0  0
   -1.4781  -10.2997    0.0000 O   0  0  0  0  0  0  0  0  0  0  0  0
   -2.7771   -8.0497    0.0000 N   0  0  0  0  0  0  0  0  0  0  0  0
   -4.0762   -8.7997    0.0000 C   0  0  0  0  0  0  0  0  0  0  0  0
   -4.0762  -10.2997    0.0000 N   0  0  0  0  0  0  0  0  0  0  0  0
   -5.3752  -11.0497    0.0000 N   0  0  0  0  0  0  0  0  0  0  0  0
   -6.6743  -10.2997    0.0000 N   0  0  0  0  0  0  0  0  0  0  0  0
   -6.6743   -8.7997    0.0000 N   0  0  0  0  0  0  0  0  0  0  0  0
   -5.3752   -8.0497    0.0000 N   0  0  0  0  0  0  0  0  0  0  0  0
    1.1913   -8.6598    0.0000 C   0  0  0  0  0  0  0  0  0  0  0  0
    1.5031  -10.1270    0.0000 O   0  0  0  0  0  0  0  0  0  0  0  0
    6.1393   -0.1535    0.0000 C   0  0  0  0  0  0  0  0  0  0  0  0
    4.9258    0.7282    0.0000 C   0  0  0  0  0  0  0  0  0  0  0  0
    5.0826    2.2200    0.0000 C   0  0  0  0  0  0  0  0  0  0  0  0
    6.4529    2.8301    0.0000 C   0  0  0  0  0  0  0  0  0  0  0  0
    7.6664    1.9484    0.0000 C   0  0  0  0  0  0  0  0  0  0  0  0
    7.5097    0.4566    0.0000 C   0  0  0  0  0  0  0  0  0  0  0  0
  1  2  1  0
  2  3  2  0
  3  4  1  0
  4  5  1  0
  5  6  1  0
  6  7  2  0
  6  8  1  0
  8  9  1  0
  9 10  2  0
 10 11  1  0
 11 12  2  0
 12 13  1  0
 13 14  1  0
 14 15  1  0
 15 16  1  0
 16 17  1  0
 17 18  1  0
 18 19  2  0
 18 20  1  0
 20 21  1  0
 21 22  2  0
 22 23  1  0
 23 24  2  0
 24 25  1  0
 25 26  2  0
 17 27  1  0
 27 28  2  0
  4 29  1  0
 29 30  2  0
 30 31  1  0
 31 32  2  0
 32 33  1  0
 33 34  2  0
 34  2  1  0
 13  9  1  0
 27 14  1  0
 34 29  1  0
 26 21  1  0
M  END
>  <Title>  (708) 
idAAZHgen14

$$$$

     RDKit          2D

 35 39  0  0  0  0  0  0  0  0999 V2000
   -3.7500   -3.8971    0.0000 C   0  0  0  0  0  0  0  0  0  0  0  0
   -3.0000   -2.5981    0.0000 C   0  0  0  0  0  0  0  0  0  0  0  0
   -1.5000   -2.5981    0.0000 N   0  0  0  0  0  0  0  0  0  0  0  0
   -0.7500   -3.8971    0.0000 C   0  0  0  0  0  0  0  0  0  0  0  0
    0.7500   -3.8971    0.0000 C   0  0  0  0  0  0  0  0  0  0  0  0
    1.5000   -2.5981    0.0000 C   0  0  0  0  0  0  0  0  0  0  0  0
    3.0000   -2.5981    0.0000 C   0  0  0  0  0  0  0  0  0  0  0  0
    3.7500   -1.2990    0.0000 O   0  0  0  0  0  0  0  0  0  0  0  0
    3.7500   -3.8971    0.0000 N   0  0  0  0  0  0  0  0  0  0  0  0
    5.2500   -3.8971    0.0000 C   0  0  0  0  0  0  0  0  0  0  0  0
    6.1317   -2.6836    0.0000 N   0  0  0  0  0  0  0  0  0  0  0  0
    7.5583   -3.1471    0.0000 N   0  0  0  0  0  0  0  0  0  0  0  0
    7.5583   -4.6471    0.0000 N   0  0  0  0  0  0  0  0  0  0  0  0
    6.1317   -5.1106    0.0000 N   0  0  0  0  0  0  0  0  0  0  0  0
    5.6682   -6.5372    0.0000 N   0  0  0  0  0  0  0  0  0  0  0  0
    6.5498   -7.7508    0.0000 C   0  0  0  0  0  0  0  0  0  0  0  0
    5.6682   -8.9643    0.0000 C   0  0  0  0  0  0  0  0  0  0  0  0
    4.2416   -8.5008    0.0000 N   0  0  0  0  0  0  0  0  0  0  0  0
    3.0280   -9.3824    0.0000 C   0  0  0  0  0  0  0  0  0  0  0  0
    3.1848  -10.8742    0.0000 O   0  0  0  0  0  0  0  0  0  0  0  0
    1.6577   -8.7723    0.0000 N   0  0  0  0  0  0  0  0  0  0  0  0
    0.4442   -9.6540    0.0000 C   0  0  0  0  0  0  0  0  0  0  0  0
   -0.9261   -9.0439    0.0000 N   0  0  0  0  0  0  0  0  0  0  0  0
   -2.1396   -9.9256    0.0000 N   0  0  0  0  0  0  0  0  0  0  0  0
   -1.9829  -11.4174    0.0000 N   0  0  0  0  0  0  0  0  0  0  0  0
   -0.6125  -12.0275    0.0000 N   0  0  0  0  0  0  0  0  0  0  0  0
    0.6010  -11.1458    0.0000 N   0  0  0  0  0  0  0  0  0  0  0  0
    4.2416   -7.0008    0.0000 C   0  0  0  0  0  0  0  0  0  0  0  0
    3.0280   -6.1191    0.0000 O   0  0  0  0  0  0  0  0  0  0  0  0
    0.7500   -1.2990    0.0000 C   0  0  0  0  0  0  0  0  0  0  0  0
    1.5000    0.0000    0.0000 C   0  0  0  0  0  0  0  0  0  0  0  0
    0.7500    1.2990    0.0000 C   0  0  0  0  0  0  0  0  0  0  0  0
   -0.7500    1.2990    0.0000 C   0  0  0  0  0  0  0  0  0  0  0  0
   -1.5000    0.0000    0.0000 C   0  0  0  0  0  0  0  0  0  0  0  0
   -0.7500   -1.2990    0.0000 C   0  0  0  0  0  0  0  0  0  0  0  0
  1  2  2  0
  2  3  1  0
  3  4  1  0
  4  5  2  0
  5  6  1  0
  6  7  1  0
  7  8  2  0
  7  9  1  0
  9 10  1  0
 10 11  2  0
 11 12  1  0
 12 13  2  0
 13 14  1  0
 14 15  1  0
 15 16  1  0
 16 17  1  0
 17 18  1  0
 18 19  1  0
 19 20  2  0
 19 21  1  0
 21 22  1  0
 22 23  2  0
 23 24  1  0
 24 25  2  0
 25 26  1  0
 26 27  2  0
 18 28  1  0
 28 29  2  0
  6 30  1  0
 30 31  2  0
 31 32  1  0
 32 33  2  0
 33 34  1  0
 34 35  2  0
 35  3  1  0
 14 10  1  0
 28 15  1  0
 35 30  1  0
 27 22  1  0
M  END
>  <Title>  (709) 
idAAZIgen14

$$$$

     RDKit          2D

  8  8  0  0  0  0  0  0  0  0999 V2000
    5.0260   -1.2990    0.0000 C   0  0  0  0  0  0  0  0  0  0  0  0
    3.5260   -1.2990    0.0000 C   0  0  0  0  0  0  0  0  0  0  0  0
    2.7760    0.0000    0.0000 C   0  0  0  0  0  0  0  0  0  0  0  0
    1.2760    0.0000    0.0000 C   0  0  0  0  0  0  0  0  0  0  0  0
    0.3943    1.2135    0.0000 C   0  0  0  0  0  0  0  0  0  0  0  0
   -1.0323    0.7500    0.0000 C   0  0  0  0  0  0  0  0  0  0  0  0
   -1.0323   -0.7500    0.0000 C   0  0  0  0  0  0  0  0  0  0  0  0
    0.3943   -1.2135    0.0000 C   0  0  0  0  0  0  0  0  0  0  0  0
  1  2  1  0
  2  3  1  0
  3  4  1  0
  4  5  1  0
  5  6  1  0
  6  7  2  0
  7  8  1  0
  8  4  1  0
M  END
>  <Title>  (710) 
idAAZJgen14

$$$$

     RDKit          2D

 17 17  0  0  0  0  0  0  0  0999 V2000
   10.5000   -5.1962    0.0000 C   0  0  0  0  0  0  0  0  0  0  0  0
    9.7500   -3.8971    0.0000 C   0  0  0  0  0  0  0  0  0  0  0  0
    8.2500   -3.8971    0.0000 C   0  0  0  0  0  0  0  0  0  0  0  0
    7.5000   -2.5981    0.0000 N   0  0  0  0  0  0  0  0  0  0  0  0
    6.0000   -2.5981    0.0000 C   0  0  0  0  0  0  0  0  0  0  0  0
    5.2500   -3.8971    0.0000 O   0  0  0  0  0  0  0  0  0  0  0  0
    5.2500   -1.2990    0.0000 C   0  0  0  0  0  0  0  0  0  0  0  0
    3.7500   -1.2990    0.0000 C   0  0  0  0  0  0  0  0  0  0  0  0
    3.0000    0.0000    0.0000 C   0  0  0  0  0  0  0  0  0  0  0  0
    1.5000    0.0000    0.0000 C   0  0  0  0  0  0  0  0  0  0  0  0
    0.7500   -1.2990    0.0000 C   0  0  0  0  0  0  0  0  0  0  0  0
   -0.7500   -1.2990    0.0000 C   0  0  0  0  0  0  0  0  0  0  0  0
   -1.5000    0.0000    0.0000 C   0  0  0  0  0  0  0  0  0  0  0  0
   -0.7500    1.2990    0.0000 N   0  0  0  0  0  0  0  0  0  0  0  0
    0.7500    1.2990    0.0000 C   0  0  0  0  0  0  0  0  0  0  0  0
    7.5000   -5.1962    0.0000 O   0  0  0  0  0  0  0  0  0  0  0  0
    8.2500   -6.4952    0.0000 C   0  0  0  0  0  0  0  0  0  0  0  0
  1  2  1  0
  2  3  1  0
  3  4  1  0
  4  5  1  0
  5  6  2  0
  5  7  1  0
  7  8  1  0
  8  9  1  0
  9 10  1  0
 10 11  2  0
 11 12  1  0
 12 13  2  0
 13 14  1  0
 14 15  2  0
  3 16  1  0
 16 17  1  0
 15 10  1  0
M  END
>  <Title>  (711) 
idAAZKgen14

$$$$

     RDKit          2D

 16 15  0  0  0  0  0  0  0  0999 V2000
    0.0000    0.0000    0.0000 C   0  0  0  0  0  0  0  0  0  0  0  0
   -0.0000   -1.5000    0.0000 C   0  0  0  0  0  0  0  0  0  0  0  0
   -0.0000   -3.0000    0.0000 C   0  0  0  0  0  0  0  0  0  0  0  0
   -0.0000   -4.5000    0.0000 C   0  0  0  0  0  0  0  0  0  0  0  0
   -0.0000   -6.0000    0.0000 C   0  0  0  0  0  0  0  0  0  0  0  0
   -0.0000   -7.5000    0.0000 C   0  0  0  0  0  0  0  0  0  0  0  0
   -0.0000   -9.0000    0.0000 C   0  0  0  0  0  0  0  0  0  0  0  0
   -0.0000  -10.5000    0.0000 C   0  0  0  0  0  0  0  0  0  0  0  0
   -0.0000  -12.0000    0.0000 C   0  0  0  0  0  0  0  0  0  0  0  0
   -0.0000  -13.5000    0.0000 C   0  0  0  0  0  0  0  0  0  0  0  0
   -0.0000  -15.0000    0.0000 C   0  0  0  0  0  0  0  0  0  0  0  0
   -0.0000  -16.5000    0.0000 C   0  0  0  0  0  0  0  0  0  0  0  0
   -0.0000  -18.0000    0.0000 C   0  0  0  0  0  0  0  0  0  0  0  0
   -0.0000  -19.5000    0.0000 C   0  0  0  0  0  0  0  0  0  0  0  0
   -0.0000  -21.0000    0.0000 C   0  0  0  0  0  0  0  0  0  0  0  0
   -0.0000  -22.5000    0.0000 C   0  0  0  0  0  0  0  0  0  0  0  0
  1  2  3  0
  2  3  1  0
  3  4  3  0
  4  5  1  0
  5  6  3  0
  6  7  1  0
  7  8  3  0
  8  9  1  0
  9 10  3  0
 10 11  1  0
 11 12  3  0
 12 13  1  0
 13 14  3  0
 14 15  1  0
 15 16  3  0
M  END
>  <Title>  (712) 
idAAZLgen14

$$$$

     RDKit          2D

 78 79  0  0  0  0  0  0  0  0999 V2000
   -2.2145   -1.0648    0.0000 C   0  0  0  0  0  0  0  0  0  0  0  0
   -2.4930    0.4091    0.0000 C   0  0  0  0  0  0  0  0  0  0  0  0
   -3.9774    0.1934    0.0000 C   0  0  0  0  0  0  0  0  0  0  0  0
   -5.4748    0.1043    0.0000 C   0  0  0  0  0  0  0  0  0  0  0  0
   -6.9743    0.1425    0.0000 C   0  0  0  0  0  0  0  0  0  0  0  0
   -8.4652    0.3077    0.0000 C   0  0  0  0  0  0  0  0  0  0  0  0
   -9.9367    0.5988    0.0000 C   0  0  0  0  0  0  0  0  0  0  0  0
  -11.3782    1.0136    0.0000 C   0  0  0  0  0  0  0  0  0  0  0  0
  -12.7793    1.5492    0.0000 C   0  0  0  0  0  0  0  0  0  0  0  0
  -14.1300    2.2016    0.0000 C   0  0  0  0  0  0  0  0  0  0  0  0
  -15.4204    2.9663    0.0000 C   0  0  0  0  0  0  0  0  0  0  0  0
  -16.6414    3.8376    0.0000 C   0  0  0  0  0  0  0  0  0  0  0  0
  -17.7841    4.8094    0.0000 C   0  0  0  0  0  0  0  0  0  0  0  0
  -18.8402    5.8745    0.0000 C   0  0  0  0  0  0  0  0  0  0  0  0
  -19.8022    7.0254    0.0000 C   0  0  0  0  0  0  0  0  0  0  0  0
  -20.6632    8.2537    0.0000 C   0  0  0  0  0  0  0  0  0  0  0  0
  -21.4168    9.5506    0.0000 C   0  0  0  0  0  0  0  0  0  0  0  0
  -22.0578   10.9068    0.0000 C   0  0  0  0  0  0  0  0  0  0  0  0
  -22.5815   12.3124    0.0000 C   0  0  0  0  0  0  0  0  0  0  0  0
  -22.9840   13.7574    0.0000 C   0  0  0  0  0  0  0  0  0  0  0  0
  -23.2626   15.2313    0.0000 C   0  0  0  0  0  0  0  0  0  0  0  0
  -23.4152   16.7235    0.0000 C   0  0  0  0  0  0  0  0  0  0  0  0
  -23.4406   18.2233    0.0000 C   0  0  0  0  0  0  0  0  0  0  0  0
  -23.3388   19.7198    0.0000 C   0  0  0  0  0  0  0  0  0  0  0  0
  -23.1105   21.2024    0.0000 C   0  0  0  0  0  0  0  0  0  0  0  0
  -22.7572   22.6602    0.0000 C   0  0  0  0  0  0  0  0  0  0  0  0
  -22.2816   24.0828    0.0000 C   0  0  0  0  0  0  0  0  0  0  0  0
  -21.6870   25.4599    0.0000 C   0  0  0  0  0  0  0  0  0  0  0  0
  -20.9778   26.7817    0.0000 C   0  0  0  0  0  0  0  0  0  0  0  0
  -20.1591   28.0385    0.0000 C   0  0  0  0  0  0  0  0  0  0  0  0
  -19.2367   29.2214    0.0000 C   0  0  0  0  0  0  0  0  0  0  0  0
  -18.2174   30.3218    0.0000 C   0  0  0  0  0  0  0  0  0  0  0  0
  -17.1083   31.3318    0.0000 C   0  0  0  0  0  0  0  0  0  0  0  0
  -15.9177   32.2441    0.0000 C   0  0  0  0  0  0  0  0  0  0  0  0
  -14.6539   33.0521    0.0000 C   0  0  0  0  0  0  0  0  0  0  0  0
  -13.3262   33.7501    0.0000 C   0  0  0  0  0  0  0  0  0  0  0  0
  -11.9440   34.3329    0.0000 C   0  0  0  0  0  0  0  0  0  0  0  0
  -10.5175   34.7964    0.0000 C   0  0  0  0  0  0  0  0  0  0  0  0
   -9.0567   35.1373    0.0000 C   0  0  0  0  0  0  0  0  0  0  0  0
   -7.5723   35.3531    0.0000 C   0  0  0  0  0  0  0  0  0  0  0  0
   -6.0749   35.4422    0.0000 C   0  0  0  0  0  0  0  0  0  0  0  0
   -4.5754   35.4040    0.0000 C   0  0  0  0  0  0  0  0  0  0  0  0
   -3.0846   35.2387    0.0000 C   0  0  0  0  0  0  0  0  0  0  0  0
   -1.6131   34.9477    0.0000 C   0  0  0  0  0  0  0  0  0  0  0  0
   -0.1716   34.5329    0.0000 C   0  0  0  0  0  0  0  0  0  0  0  0
    1.2296   33.9973    0.0000 C   0  0  0  0  0  0  0  0  0  0  0  0
    2.5802   33.3448    0.0000 C   0  0  0  0  0  0  0  0  0  0  0  0
    3.8707   32.5802    0.0000 C   0  0  0  0  0  0  0  0  0  0  0  0
    5.0917   31.7088    0.0000 C   0  0  0  0  0  0  0  0  0  0  0  0
    6.2343   30.7371    0.0000 C   0  0  0  0  0  0  0  0  0  0  0  0
    7.2905   29.6719    0.0000 C   0  0  0  0  0  0  0  0  0  0  0  0
    8.2525   28.5210    0.0000 C   0  0  0  0  0  0  0  0  0  0  0  0
    9.1134   27.2927    0.0000 C   0  0  0  0  0  0  0  0  0  0  0  0
    9.8671   25.9958    0.0000 C   0  0  0  0  0  0  0  0  0  0  0  0
   10.5081   24.6396    0.0000 C   0  0  0  0  0  0  0  0  0  0  0  0
   11.0317   23.2340    0.0000 C   0  0  0  0  0  0  0  0  0  0  0  0
   11.4343   21.7890    0.0000 C   0  0  0  0  0  0  0  0  0  0  0  0
   11.7129   20.3151    0.0000 C   0  0  0  0  0  0  0  0  0  0  0  0
   11.8654   18.8229    0.0000 C   0  0  0  0  0  0  0  0  0  0  0  0
   11.8909   17.3231    0.0000 C   0  0  0  0  0  0  0  0  0  0  0  0
   11.7891   15.8266    0.0000 C   0  0  0  0  0  0  0  0  0  0  0  0
   11.5607   14.3441    0.0000 C   0  0  0  0  0  0  0  0  0  0  0  0
   11.2075   12.8863    0.0000 C   0  0  0  0  0  0  0  0  0  0  0  0
   10.7318   11.4637    0.0000 C   0  0  0  0  0  0  0  0  0  0  0  0
   10.1373   10.0865    0.0000 C   0  0  0  0  0  0  0  0  0  0  0  0
    9.4281    8.7648    0.0000 C   0  0  0  0  0  0  0  0  0  0  0  0
    8.6094    7.5079    0.0000 C   0  0  0  0  0  0  0  0  0  0  0  0
    7.6870    6.3250    0.0000 C   0  0  0  0  0  0  0  0  0  0  0  0
    6.6676    5.2246    0.0000 C   0  0  0  0  0  0  0  0  0  0  0  0
    5.5586    4.2147    0.0000 C   0  0  0  0  0  0  0  0  0  0  0  0
    4.3679    3.3024    0.0000 C   0  0  0  0  0  0  0  0  0  0  0  0
    3.1042    2.4943    0.0000 C   0  0  0  0  0  0  0  0  0  0  0  0
    1.7764    1.7964    0.0000 C   0  0  0  0  0  0  0  0  0  0  0  0
    0.3943    1.2135    0.0000 C   0  0  0  0  0  0  0  0  0  0  0  0
    1.2760    0.0000    0.0000 C   0  0  0  0  0  0  0  0  0  0  0  0
    0.3943   -1.2135    0.0000 C   0  0  0  0  0  0  0  0  0  0  0  0
   -1.0323   -0.7500    0.0000 C   0  0  0  0  0  0  0  0  0  0  0  0
   -1.0323    0.7500    0.0000 C   0  0  0  0  0  0  0  0  0  0  0  0
  1  2  1  0
  2  3  1  0
  3  4  1  0
  4  5  1  0
  5  6  1  0
  6  7  1  0
  7  8  1  0
  8  9  1  0
  9 10  1  0
 10 11  1  0
 11 12  1  0
 12 13  1  0
 13 14  1  0
 14 15  1  0
 15 16  1  0
 16 17  1  0
 17 18  1  0
 18 19  1  0
 19 20  1  0
 20 21  1  0
 21 22  1  0
 22 23  1  0
 23 24  1  0
 24 25  1  0
 25 26  1  0
 26 27  1  0
 27 28  1  0
 28 29  1  0
 29 30  1  0
 30 31  1  0
 31 32  1  0
 32 33  1  0
 33 34  1  0
 34 35  1  0
 35 36  1  0
 36 37  1  0
 37 38  1  0
 38 39  1  0
 39 40  1  0
 40 41  1  0
 41 42  1  0
 42 43  1  0
 43 44  1  0
 44 45  1  0
 45 46  1  0
 46 47  1  0
 47 48  1  0
 48 49  1  0
 49 50  1  0
 50 51  1  0
 51 52  1  0
 52 53  1  0
 53 54  1  0
 54 55  1  0
 55 56  1  0
 56 57  1  0
 57 58  1  0
 58 59  1  0
 59 60  1  0
 60 61  1  0
 61 62  1  0
 62 63  1  0
 63 64  1  0
 64 65  1  0
 65 66  1  0
 66 67  1  0
 67 68  1  0
 68 69  1  0
 69 70  1  0
 70 71  1  0
 71 72  1  0
 72 73  1  0
 73 74  1  0
 74 75  1  0
 75 76  2  0
 76 77  1  0
 77 78  2  0
 78  2  1  0
 78 74  1  0
M  END
>  <Title>  (713) 
idAAZMgen14

$$$$

     RDKit          2D

  7  6  0  0  0  0  0  0  0  0999 V2000
    0.0000    0.0000    0.0000 C   0  0  0  0  0  0  0  0  0  0  0  0
    1.2990    0.7500    0.0000 C   0  0  0  0  0  0  0  0  0  0  0  0
    2.5981   -0.0000    0.0000 C   0  0  0  0  0  0  0  0  0  0  0  0
    3.8971    0.7500    0.0000 C   0  0  0  0  0  0  0  0  0  0  0  0
    5.1962   -0.0000    0.0000 C   0  0  0  0  0  0  0  0  0  0  0  0
    6.4952    0.7500    0.0000 C   0  0  0  0  0  0  0  0  0  0  0  0
    7.7942   -0.0000    0.0000 C   0  0  0  0  0  0  0  0  0  0  0  0
  1  2  1  0
  2  3  1  0
  3  4  1  0
  4  5  1  0
  5  6  1  0
  6  7  1  0
M  END
>  <Title>  (714) 
idAAZNgen14

$$$$

     RDKit          2D

  9  8  0  0  0  0  0  0  0  0999 V2000
    0.0000    0.0000    0.0000 C   0  0  0  0  0  0  0  0  0  0  0  0
   -0.0000   -1.5000    0.0000 C   0  0  0  0  0  0  0  0  0  0  0  0
   -0.0000   -3.0000    0.0000 C   0  0  0  0  0  0  0  0  0  0  0  0
   -0.0000   -4.5000    0.0000 C   0  0  0  0  0  0  0  0  0  0  0  0
   -0.0000   -6.0000    0.0000 C   0  0  0  0  0  0  0  0  0  0  0  0
   -0.0000   -7.5000    0.0000 C   0  0  0  0  0  0  0  0  0  0  0  0
   -0.0000   -9.0000    0.0000 C   0  0  0  0  0  0  0  0  0  0  0  0
    1.2990   -9.7500    0.0000 C   0  0  0  0  0  0  0  0  0  0  0  0
   -1.2990   -9.7500    0.0000 C   0  0  0  0  0  0  0  0  0  0  0  0
  1  2  3  0
  2  3  1  0
  3  4  3  0
  4  5  1  0
  5  6  3  0
  6  7  1  0
  7  8  1  0
  7  9  1  0
M  END
>  <Title>  (715) 
idAAZOgen14

$$$$

     RDKit          2D

  7  6  0  0  0  0  0  0  0  0999 V2000
    0.0000    0.0000    0.0000 C   0  0  0  0  0  0  0  0  0  0  0  0
    1.2990    0.7500    0.0000 C   0  0  0  0  0  0  0  0  0  0  0  0
    2.5981   -0.0000    0.0000 C   0  0  0  0  0  0  0  0  0  0  0  0
    3.8971    0.7500    0.0000 C   0  0  0  0  0  0  0  0  0  0  0  0
    5.1962   -0.0000    0.0000 C   0  0  0  0  0  0  0  0  0  0  0  0
    3.8971    2.2500    0.0000 O   0  0  0  0  0  0  0  0  0  0  0  0
    5.1962    3.0000    0.0000 C   0  0  0  0  0  0  0  0  0  0  0  0
  1  2  1  0
  2  3  1  0
  3  4  1  0
  4  5  1  0
  4  6  1  0
  6  7  1  0
M  END
>  <Title>  (716) 
idAAZPgen14

$$$$

     RDKit          2D

 10 10  0  0  0  0  0  0  0  0999 V2000
    5.7760   -2.5981    0.0000 C   0  0  0  0  0  0  0  0  0  0  0  0
    5.0260   -1.2990    0.0000 C   0  0  0  0  0  0  0  0  0  0  0  0
    5.7760    0.0000    0.0000 C   0  0  0  0  0  0  0  0  0  0  0  0
    3.5260   -1.2990    0.0000 C   0  0  0  0  0  0  0  0  0  0  0  0
    2.7760    0.0000    0.0000 C   0  0  0  0  0  0  0  0  0  0  0  0
    1.2760    0.0000    0.0000 C   0  0  0  0  0  0  0  0  0  0  0  0
    0.3943    1.2135    0.0000 C   0  0  0  0  0  0  0  0  0  0  0  0
   -1.0323    0.7500    0.0000 C   0  0  0  0  0  0  0  0  0  0  0  0
   -1.0323   -0.7500    0.0000 C   0  0  0  0  0  0  0  0  0  0  0  0
    0.3943   -1.2135    0.0000 C   0  0  0  0  0  0  0  0  0  0  0  0
  1  2  1  0
  2  3  1  0
  2  4  1  0
  4  5  1  0
  5  6  1  0
  6  7  1  0
  7  8  2  0
  8  9  1  0
  9 10  1  0
 10  6  1  0
M  END
>  <Title>  (717) 
idAAZQgen14

$$$$

     RDKit          2D

 33 37  0  0  0  0  0  0  0  0999 V2000
   -2.6401   -3.1891    0.0000 C   0  0  0  0  0  0  0  0  0  0  0  0
   -1.2135   -2.7256    0.0000 C   0  0  0  0  0  0  0  0  0  0  0  0
   -0.0000   -3.6073    0.0000 C   0  0  0  0  0  0  0  0  0  0  0  0
    1.2135   -2.7256    0.0000 C   0  0  0  0  0  0  0  0  0  0  0  0
    2.6401   -3.1891    0.0000 C   0  0  0  0  0  0  0  0  0  0  0  0
    3.7548   -2.1855    0.0000 O   0  0  0  0  0  0  0  0  0  0  0  0
    2.9520   -4.6564    0.0000 N   0  0  0  0  0  0  0  0  0  0  0  0
    4.3786   -5.1199    0.0000 C   0  0  0  0  0  0  0  0  0  0  0  0
    5.5921   -4.2382    0.0000 N   0  0  0  0  0  0  0  0  0  0  0  0
    6.8056   -5.1199    0.0000 N   0  0  0  0  0  0  0  0  0  0  0  0
    6.3421   -6.5465    0.0000 N   0  0  0  0  0  0  0  0  0  0  0  0
    4.8421   -6.5465    0.0000 N   0  0  0  0  0  0  0  0  0  0  0  0
    3.9604   -7.7600    0.0000 N   0  0  0  0  0  0  0  0  0  0  0  0
    4.4239   -9.1866    0.0000 C   0  0  0  0  0  0  0  0  0  0  0  0
    3.2104  -10.0683    0.0000 C   0  0  0  0  0  0  0  0  0  0  0  0
    1.9969   -9.1866    0.0000 C   0  0  0  0  0  0  0  0  0  0  0  0
    0.5703   -9.6501    0.0000 C   0  0  0  0  0  0  0  0  0  0  0  0
    0.2584  -11.1173    0.0000 O   0  0  0  0  0  0  0  0  0  0  0  0
   -0.5444   -8.6464    0.0000 N   0  0  0  0  0  0  0  0  0  0  0  0
   -1.9710   -9.1099    0.0000 C   0  0  0  0  0  0  0  0  0  0  0  0
   -3.0857   -8.1062    0.0000 N   0  0  0  0  0  0  0  0  0  0  0  0
   -4.5123   -8.5698    0.0000 N   0  0  0  0  0  0  0  0  0  0  0  0
   -4.8242  -10.0370    0.0000 N   0  0  0  0  0  0  0  0  0  0  0  0
   -3.7095  -11.0407    0.0000 N   0  0  0  0  0  0  0  0  0  0  0  0
   -2.2829  -10.5772    0.0000 N   0  0  0  0  0  0  0  0  0  0  0  0
    2.4604   -7.7600    0.0000 C   0  0  0  0  0  0  0  0  0  0  0  0
    1.5787   -6.5465    0.0000 O   0  0  0  0  0  0  0  0  0  0  0  0
    0.7500   -1.2990    0.0000 C   0  0  0  0  0  0  0  0  0  0  0  0
    1.5000    0.0000    0.0000 C   0  0  0  0  0  0  0  0  0  0  0  0
    0.7500    1.2990    0.0000 C   0  0  0  0  0  0  0  0  0  0  0  0
   -0.7500    1.2990    0.0000 C   0  0  0  0  0  0  0  0  0  0  0  0
   -1.5000    0.0000    0.0000 C   0  0  0  0  0  0  0  0  0  0  0  0
   -0.7500   -1.2990    0.0000 C   0  0  0  0  0  0  0  0  0  0  0  0
  1  2  1  0
  2  3  2  0
  3  4  1  0
  4  5  1  0
  5  6  2  0
  5  7  1  0
  7  8  1  0
  8  9  2  0
  9 10  1  0
 10 11  2  0
 11 12  1  0
 12 13  1  0
 13 14  1  0
 14 15  1  0
 15 16  1  0
 16 17  1  0
 17 18  2  0
 17 19  1  0
 19 20  1  0
 20 21  2  0
 21 22  1  0
 22 23  2  0
 23 24  1  0
 24 25  2  0
 16 26  1  0
 26 27  2  0
  4 28  1  0
 28 29  2  0
 29 30  1  0
 30 31  2  0
 31 32  1  0
 32 33  2  0
 33  2  1  0
 12  8  1  0
 26 13  1  0
 33 28  1  0
 25 20  1  0
M  END
>  <Title>  (718) 
idAAZRgen14

$$$$

     RDKit          2D

 50 50  0  0  0  0  0  0  0  0999 V2000
   67.5000    0.0000    0.0000 C   0  0  0  0  0  0  0  0  0  0  0  0
   66.0000    0.0000    0.0000 C   0  0  0  0  0  0  0  0  0  0  0  0
   64.5000    0.0000    0.0000 C   0  0  0  0  0  0  0  0  0  0  0  0
   63.0000    0.0000    0.0000 C   0  0  0  0  0  0  0  0  0  0  0  0
   61.5000    0.0000    0.0000 C   0  0  0  0  0  0  0  0  0  0  0  0
   60.0000    0.0000    0.0000 C   0  0  0  0  0  0  0  0  0  0  0  0
   58.5000    0.0000    0.0000 C   0  0  0  0  0  0  0  0  0  0  0  0
   57.0000    0.0000    0.0000 C   0  0  0  0  0  0  0  0  0  0  0  0
   55.5000    0.0000    0.0000 C   0  0  0  0  0  0  0  0  0  0  0  0
   54.0000    0.0000    0.0000 C   0  0  0  0  0  0  0  0  0  0  0  0
   52.5000    0.0000    0.0000 C   0  0  0  0  0  0  0  0  0  0  0  0
   51.0000    0.0000    0.0000 C   0  0  0  0  0  0  0  0  0  0  0  0
   49.5000    0.0000    0.0000 C   0  0  0  0  0  0  0  0  0  0  0  0
   48.0000    0.0000    0.0000 C   0  0  0  0  0  0  0  0  0  0  0  0
   46.5000    0.0000    0.0000 C   0  0  0  0  0  0  0  0  0  0  0  0
   45.0000    0.0000    0.0000 C   0  0  0  0  0  0  0  0  0  0  0  0
   43.5000    0.0000    0.0000 C   0  0  0  0  0  0  0  0  0  0  0  0
   42.0000    0.0000    0.0000 C   0  0  0  0  0  0  0  0  0  0  0  0
   40.5000    0.0000    0.0000 C   0  0  0  0  0  0  0  0  0  0  0  0
   39.0000    0.0000    0.0000 C   0  0  0  0  0  0  0  0  0  0  0  0
   37.5000    0.0000    0.0000 C   0  0  0  0  0  0  0  0  0  0  0  0
   36.0000    0.0000    0.0000 C   0  0  0  0  0  0  0  0  0  0  0  0
   34.5000    0.0000    0.0000 C   0  0  0  0  0  0  0  0  0  0  0  0
   33.0000    0.0000    0.0000 C   0  0  0  0  0  0  0  0  0  0  0  0
   31.5000    0.0000    0.0000 C   0  0  0  0  0  0  0  0  0  0  0  0
   30.0000    0.0000    0.0000 C   0  0  0  0  0  0  0  0  0  0  0  0
   28.5000    0.0000    0.0000 C   0  0  0  0  0  0  0  0  0  0  0  0
   27.0000    0.0000    0.0000 C   0  0  0  0  0  0  0  0  0  0  0  0
   25.5000    0.0000    0.0000 C   0  0  0  0  0  0  0  0  0  0  0  0
   24.0000    0.0000    0.0000 C   0  0  0  0  0  0  0  0  0  0  0  0
   22.5000    0.0000    0.0000 C   0  0  0  0  0  0  0  0  0  0  0  0
   21.0000    0.0000    0.0000 C   0  0  0  0  0  0  0  0  0  0  0  0
   19.5000    0.0000    0.0000 C   0  0  0  0  0  0  0  0  0  0  0  0
   18.0000    0.0000    0.0000 C   0  0  0  0  0  0  0  0  0  0  0  0
   16.5000    0.0000    0.0000 C   0  0  0  0  0  0  0  0  0  0  0  0
   15.0000    0.0000    0.0000 C   0  0  0  0  0  0  0  0  0  0  0  0
   13.5000    0.0000    0.0000 C   0  0  0  0  0  0  0  0  0  0  0  0
   12.0000    0.0000    0.0000 C   0  0  0  0  0  0  0  0  0  0  0  0
   10.5000    0.0000    0.0000 C   0  0  0  0  0  0  0  0  0  0  0  0
    9.0000    0.0000    0.0000 C   0  0  0  0  0  0  0  0  0  0  0  0
    7.5000    0.0000    0.0000 C   0  0  0  0  0  0  0  0  0  0  0  0
    6.0000    0.0000    0.0000 C   0  0  0  0  0  0  0  0  0  0  0  0
    4.5000    0.0000    0.0000 C   0  0  0  0  0  0  0  0  0  0  0  0
    3.0000    0.0000    0.0000 C   0  0  0  0  0  0  0  0  0  0  0  0
    1.5000    0.0000    0.0000 C   0  0  0  0  0  0  0  0  0  0  0  0
    0.7500   -1.2990    0.0000 C   0  0  0  0  0  0  0  0  0  0  0  0
   -0.7500   -1.2990    0.0000 C   0  0  0  0  0  0  0  0  0  0  0  0
   -1.5000    0.0000    0.0000 C   0  0  0  0  0  0  0  0  0  0  0  0
   -0.7500    1.2990    0.0000 N   0  0  0  0  0  0  0  0  0  0  0  0
    0.7500    1.2990    0.0000 C   0  0  0  0  0  0  0  0  0  0  0  0
  1  2  3  0
  2  3  1  0
  3  4  3  0
  4  5  1  0
  5  6  3  0
  6  7  1  0
  7  8  3  0
  8  9  1  0
  9 10  3  0
 10 11  1  0
 11 12  3  0
 12 13  1  0
 13 14  3  0
 14 15  1  0
 15 16  3  0
 16 17  1  0
 17 18  3  0
 18 19  1  0
 19 20  3  0
 20 21  1  0
 21 22  3  0
 22 23  1  0
 23 24  3  0
 24 25  1  0
 25 26  3  0
 26 27  1  0
 27 28  3  0
 28 29  1  0
 29 30  3  0
 30 31  1  0
 31 32  3  0
 32 33  1  0
 33 34  3  0
 34 35  1  0
 35 36  3  0
 36 37  1  0
 37 38  3  0
 38 39  1  0
 39 40  3  0
 40 41  1  0
 41 42  3  0
 42 43  1  0
 43 44  3  0
 44 45  1  0
 45 46  2  0
 46 47  1  0
 47 48  2  0
 48 49  1  0
 49 50  2  0
 50 45  1  0
M  END
>  <Title>  (719) 
idAAZSgen14

$$$$

     RDKit          2D

 77 78  0  0  0  0  0  0  0  0999 V2000
    5.4898   -4.2996    0.0000 C   0  0  0  0  0  0  0  0  0  0  0  0
    6.2814   -4.3932    0.0000 C   0  0  0  0  0  0  0  0  0  0  0  0
    6.2029   -5.8912    0.0000 C   0  0  0  0  0  0  0  0  0  0  0  0
    6.3206   -7.3866    0.0000 C   0  0  0  0  0  0  0  0  0  0  0  0
    6.6325   -8.8538    0.0000 C   0  0  0  0  0  0  0  0  0  0  0  0
    7.1332  -10.2678    0.0000 C   0  0  0  0  0  0  0  0  0  0  0  0
    7.8142  -11.6043    0.0000 C   0  0  0  0  0  0  0  0  0  0  0  0
    8.6638  -12.8405    0.0000 C   0  0  0  0  0  0  0  0  0  0  0  0
    9.6675  -13.9552    0.0000 C   0  0  0  0  0  0  0  0  0  0  0  0
   10.8081  -14.9293    0.0000 C   0  0  0  0  0  0  0  0  0  0  0  0
   12.0661  -15.7463    0.0000 C   0  0  0  0  0  0  0  0  0  0  0  0
   13.4200  -16.3921    0.0000 C   0  0  0  0  0  0  0  0  0  0  0  0
   14.8465  -16.8556    0.0000 C   0  0  0  0  0  0  0  0  0  0  0  0
   16.3214  -17.1289    0.0000 C   0  0  0  0  0  0  0  0  0  0  0  0
   17.8194  -17.2075    0.0000 C   0  0  0  0  0  0  0  0  0  0  0  0
   19.3147  -17.0898    0.0000 C   0  0  0  0  0  0  0  0  0  0  0  0
   20.7820  -16.7779    0.0000 C   0  0  0  0  0  0  0  0  0  0  0  0
   22.1959  -16.2772    0.0000 C   0  0  0  0  0  0  0  0  0  0  0  0
   23.5324  -15.5962    0.0000 C   0  0  0  0  0  0  0  0  0  0  0  0
   24.7686  -14.7466    0.0000 C   0  0  0  0  0  0  0  0  0  0  0  0
   25.8833  -13.7429    0.0000 C   0  0  0  0  0  0  0  0  0  0  0  0
   26.8575  -12.6023    0.0000 C   0  0  0  0  0  0  0  0  0  0  0  0
   27.6745  -11.3443    0.0000 C   0  0  0  0  0  0  0  0  0  0  0  0
   28.3202   -9.9904    0.0000 C   0  0  0  0  0  0  0  0  0  0  0  0
   28.7838   -8.5638    0.0000 C   0  0  0  0  0  0  0  0  0  0  0  0
   29.0571   -7.0889    0.0000 C   0  0  0  0  0  0  0  0  0  0  0  0
   29.1356   -5.5910    0.0000 C   0  0  0  0  0  0  0  0  0  0  0  0
   29.0179   -4.0956    0.0000 C   0  0  0  0  0  0  0  0  0  0  0  0
   28.7061   -2.6284    0.0000 C   0  0  0  0  0  0  0  0  0  0  0  0
   28.2054   -1.2144    0.0000 C   0  0  0  0  0  0  0  0  0  0  0  0
   27.5244    0.1221    0.0000 C   0  0  0  0  0  0  0  0  0  0  0  0
   26.6748    1.3583    0.0000 C   0  0  0  0  0  0  0  0  0  0  0  0
   25.6711    2.4730    0.0000 C   0  0  0  0  0  0  0  0  0  0  0  0
   24.5305    3.4472    0.0000 C   0  0  0  0  0  0  0  0  0  0  0  0
   23.2724    4.2641    0.0000 C   0  0  0  0  0  0  0  0  0  0  0  0
   21.9186    4.9099    0.0000 C   0  0  0  0  0  0  0  0  0  0  0  0
   20.4920    5.3734    0.0000 C   0  0  0  0  0  0  0  0  0  0  0  0
   19.0171    5.6468    0.0000 C   0  0  0  0  0  0  0  0  0  0  0  0
   17.5192    5.7253    0.0000 C   0  0  0  0  0  0  0  0  0  0  0  0
   16.0238    5.6076    0.0000 C   0  0  0  0  0  0  0  0  0  0  0  0
   14.5566    5.2957    0.0000 C   0  0  0  0  0  0  0  0  0  0  0  0
   13.1426    4.7950    0.0000 C   0  0  0  0  0  0  0  0  0  0  0  0
   11.8061    4.1140    0.0000 C   0  0  0  0  0  0  0  0  0  0  0  0
   10.5699    3.2644    0.0000 C   0  0  0  0  0  0  0  0  0  0  0  0
    9.4552    2.2607    0.0000 C   0  0  0  0  0  0  0  0  0  0  0  0
    8.4810    1.1201    0.0000 C   0  0  0  0  0  0  0  0  0  0  0  0
    7.6641   -0.1379    0.0000 C   0  0  0  0  0  0  0  0  0  0  0  0
    7.0183   -1.4918    0.0000 C   0  0  0  0  0  0  0  0  0  0  0  0
    6.4751   -0.0000    0.0000 C   0  0  0  0  0  0  0  0  0  0  0  0
    6.3336    1.3462    0.0000 C   0  0  0  0  0  0  0  0  0  0  0  0
    5.9153    2.6337    0.0000 C   0  0  0  0  0  0  0  0  0  0  0  0
    5.2384    3.8060    0.0000 C   0  0  0  0  0  0  0  0  0  0  0  0
    4.3327    4.8119    0.0000 C   0  0  0  0  0  0  0  0  0  0  0  0
    3.2375    5.6076    0.0000 C   0  0  0  0  0  0  0  0  0  0  0  0
    2.0009    6.1582    0.0000 C   0  0  0  0  0  0  0  0  0  0  0  0
    0.6768    6.4396    0.0000 C   0  0  0  0  0  0  0  0  0  0  0  0
   -0.6768    6.4396    0.0000 C   0  0  0  0  0  0  0  0  0  0  0  0
   -2.0009    6.1582    0.0000 C   0  0  0  0  0  0  0  0  0  0  0  0
   -3.2375    5.6076    0.0000 C   0  0  0  0  0  0  0  0  0  0  0  0
   -4.3327    4.8119    0.0000 C   0  0  0  0  0  0  0  0  0  0  0  0
   -5.2384    3.8060    0.0000 C   0  0  0  0  0  0  0  0  0  0  0  0
   -5.9153    2.6337    0.0000 C   0  0  0  0  0  0  0  0  0  0  0  0
   -6.3336    1.3462    0.0000 C   0  0  0  0  0  0  0  0  0  0  0  0
   -6.4751    0.0000    0.0000 C   0  0  0  0  0  0  0  0  0  0  0  0
   -6.3336   -1.3462    0.0000 C   0  0  0  0  0  0  0  0  0  0  0  0
   -5.9153   -2.6337    0.0000 C   0  0  0  0  0  0  0  0  0  0  0  0
   -5.2384   -3.8060    0.0000 C   0  0  0  0  0  0  0  0  0  0  0  0
   -4.3327   -4.8119    0.0000 C   0  0  0  0  0  0  0  0  0  0  0  0
   -3.2375   -5.6076    0.0000 C   0  0  0  0  0  0  0  0  0  0  0  0
   -2.0009   -6.1582    0.0000 C   0  0  0  0  0  0  0  0  0  0  0  0
   -0.6768   -6.4396    0.0000 C   0  0  0  0  0  0  0  0  0  0  0  0
    0.6768   -6.4396    0.0000 C   0  0  0  0  0  0  0  0  0  0  0  0
    2.0009   -6.1582    0.0000 C   0  0  0  0  0  0  0  0  0  0  0  0
    3.2375   -5.6076    0.0000 C   0  0  0  0  0  0  0  0  0  0  0  0
    4.3327   -4.8119    0.0000 C   0  0  0  0  0  0  0  0  0  0  0  0
    5.2384   -3.8060    0.0000 C   0  0  0  0  0  0  0  0  0  0  0  0
    6.5548   -2.9184    0.0000 C   0  0  0  0  0  0  0  0  0  0  0  0
  1  2  1  0
  2  3  1  0
  3  4  1  0
  4  5  1  0
  5  6  1  0
  6  7  1  0
  7  8  1  0
  8  9  1  0
  9 10  1  0
 10 11  1  0
 11 12  1  0
 12 13  1  0
 13 14  1  0
 14 15  1  0
 15 16  1  0
 16 17  1  0
 17 18  1  0
 18 19  1  0
 19 20  1  0
 20 21  1  0
 21 22  1  0
 22 23  1  0
 23 24  1  0
 24 25  1  0
 25 26  1  0
 26 27  1  0
 27 28  1  0
 28 29  1  0
 29 30  1  0
 30 31  1  0
 31 32  1  0
 32 33  1  0
 33 34  1  0
 34 35  1  0
 35 36  1  0
 36 37  1  0
 37 38  1  0
 38 39  1  0
 39 40  1  0
 40 41  1  0
 41 42  1  0
 42 43  1  0
 43 44  1  0
 44 45  1  0
 45 46  1  0
 46 47  1  0
 47 48  1  0
 48 49  1  0
 49 50  1  0
 50 51  1  0
 51 52  1  0
 52 53  2  0
 53 54  1  0
 54 55  2  0
 55 56  1  0
 56 57  2  0
 57 58  1  0
 58 59  2  0
 59 60  1  0
 60 61  2  0
 61 62  1  0
 62 63  2  0
 63 64  1  0
 64 65  2  0
 65 66  1  0
 66 67  2  0
 67 68  1  0
 68 69  2  0
 69 70  1  0
 70 71  2  0
 71 72  1  0
 72 73  2  0
 73 74  1  0
 74 75  2  0
 75 76  1  0
 76 77  2  0
 77  2  1  0
 77 48  1  0
M  END
>  <Title>  (720) 
idAAZTgen14

$$$$

     RDKit          2D

 35 39  0  0  0  0  0  0  0  0999 V2000
   -3.0000   -2.5981    0.0000 C   0  0  0  0  0  0  0  0  0  0  0  0
   -1.5000   -2.5981    0.0000 C   0  0  0  0  0  0  0  0  0  0  0  0
   -0.7500   -3.8971    0.0000 C   0  0  0  0  0  0  0  0  0  0  0  0
    0.7500   -3.8971    0.0000 C   0  0  0  0  0  0  0  0  0  0  0  0
    1.5000   -2.5981    0.0000 C   0  0  0  0  0  0  0  0  0  0  0  0
    3.0000   -2.5981    0.0000 C   0  0  0  0  0  0  0  0  0  0  0  0
    3.7500   -1.2990    0.0000 O   0  0  0  0  0  0  0  0  0  0  0  0
    3.7500   -3.8971    0.0000 N   0  0  0  0  0  0  0  0  0  0  0  0
    5.2500   -3.8971    0.0000 C   0  0  0  0  0  0  0  0  0  0  0  0
    6.1317   -2.6836    0.0000 N   0  0  0  0  0  0  0  0  0  0  0  0
    7.5583   -3.1471    0.0000 N   0  0  0  0  0  0  0  0  0  0  0  0
    7.5583   -4.6471    0.0000 N   0  0  0  0  0  0  0  0  0  0  0  0
    6.1317   -5.1106    0.0000 N   0  0  0  0  0  0  0  0  0  0  0  0
    5.6682   -6.5372    0.0000 C   0  0  0  0  0  0  0  0  0  0  0  0
    6.5498   -7.7508    0.0000 C   0  0  0  0  0  0  0  0  0  0  0  0
    5.6682   -8.9643    0.0000 C   0  0  0  0  0  0  0  0  0  0  0  0
    4.2416   -8.5008    0.0000 C   0  0  0  0  0  0  0  0  0  0  0  0
    3.0280   -9.3824    0.0000 O   0  0  0  0  0  0  0  0  0  0  0  0
    1.6577   -8.7723    0.0000 C   0  0  0  0  0  0  0  0  0  0  0  0
    1.5009   -7.2805    0.0000 O   0  0  0  0  0  0  0  0  0  0  0  0
    0.4442   -9.6540    0.0000 N   0  0  0  0  0  0  0  0  0  0  0  0
   -0.9261   -9.0439    0.0000 C   0  0  0  0  0  0  0  0  0  0  0  0
   -1.0829   -7.5521    0.0000 N   0  0  0  0  0  0  0  0  0  0  0  0
   -2.4532   -6.9420    0.0000 N   0  0  0  0  0  0  0  0  0  0  0  0
   -3.6668   -7.8237    0.0000 N   0  0  0  0  0  0  0  0  0  0  0  0
   -3.5100   -9.3155    0.0000 N   0  0  0  0  0  0  0  0  0  0  0  0
   -2.1396   -9.9256    0.0000 N   0  0  0  0  0  0  0  0  0  0  0  0
    4.2416   -7.0008    0.0000 C   0  0  0  0  0  0  0  0  0  0  0  0
    3.0280   -6.1191    0.0000 O   0  0  0  0  0  0  0  0  0  0  0  0
    0.7500   -1.2990    0.0000 C   0  0  0  0  0  0  0  0  0  0  0  0
    1.5000    0.0000    0.0000 C   0  0  0  0  0  0  0  0  0  0  0  0
    0.7500    1.2990    0.0000 C   0  0  0  0  0  0  0  0  0  0  0  0
   -0.7500    1.2990    0.0000 C   0  0  0  0  0  0  0  0  0  0  0  0
   -1.5000    0.0000    0.0000 C   0  0  0  0  0  0  0  0  0  0  0  0
   -0.7500   -1.2990    0.0000 C   0  0  0  0  0  0  0  0  0  0  0  0
  1  2  1  0
  2  3  1  0
  3  4  1  0
  4  5  1  0
  5  6  1  0
  6  7  2  0
  6  8  1  0
  8  9  1  0
  9 10  2  0
 10 11  1  0
 11 12  2  0
 12 13  1  0
 13 14  1  0
 14 15  2  0
 15 16  1  0
 16 17  2  0
 17 18  1  0
 18 19  1  0
 19 20  2  0
 19 21  1  0
 21 22  1  0
 22 23  2  0
 23 24  1  0
 24 25  2  0
 25 26  1  0
 26 27  2  0
 17 28  1  0
 28 29  2  0
  5 30  1  0
 30 31  2  0
 31 32  1  0
 32 33  2  0
 33 34  1  0
 34 35  2  0
 35  2  1  0
 13  9  1  0
 28 14  1  0
 35 30  1  0
 27 22  1  0
M  END
>  <Title>  (721) 
idAAZUgen14

$$$$

     RDKit          2D

 55 62  0  0  0  0  0  0  0  0999 V2000
   -0.0000   -9.9348    0.0000 C   0  0  0  0  0  0  0  0  0  0  0  0
   -0.0000   -8.4348    0.0000 C   0  0  0  0  0  0  0  0  0  0  0  0
    1.4672   -8.1229    0.0000 C   0  0  0  0  0  0  0  0  0  0  0  0
    2.6807   -7.2413    0.0000 C   0  0  0  0  0  0  0  0  0  0  0  0
    3.4307   -5.9422    0.0000 C   0  0  0  0  0  0  0  0  0  0  0  0
    3.5875   -4.4504    0.0000 C   0  0  0  0  0  0  0  0  0  0  0  0
    3.1240   -3.0239    0.0000 C   0  0  0  0  0  0  0  0  0  0  0  0
    2.1203   -1.9091    0.0000 C   0  0  0  0  0  0  0  0  0  0  0  0
    3.0020   -0.6956    0.0000 C   0  0  0  0  0  0  0  0  0  0  0  0
    2.3919    0.6747    0.0000 O   0  0  0  0  0  0  0  0  0  0  0  0
    4.4938   -0.8524    0.0000 N   0  0  0  0  0  0  0  0  0  0  0  0
    5.3755    0.3611    0.0000 C   0  0  0  0  0  0  0  0  0  0  0  0
    4.9119    1.7877    0.0000 N   0  0  0  0  0  0  0  0  0  0  0  0
    6.1255    2.6694    0.0000 N   0  0  0  0  0  0  0  0  0  0  0  0
    7.3390    1.7877    0.0000 N   0  0  0  0  0  0  0  0  0  0  0  0
    6.8755    0.3611    0.0000 N   0  0  0  0  0  0  0  0  0  0  0  0
    7.7571   -0.8524    0.0000 C   0  0  0  0  0  0  0  0  0  0  0  0
    9.2571   -0.8524    0.0000 C   0  0  0  0  0  0  0  0  0  0  0  0
    9.7207   -2.2790    0.0000 C   0  0  0  0  0  0  0  0  0  0  0  0
    8.5071   -3.1607    0.0000 C   0  0  0  0  0  0  0  0  0  0  0  0
    8.5071   -4.6607    0.0000 C   0  0  0  0  0  0  0  0  0  0  0  0
    9.8062   -5.4107    0.0000 O   0  0  0  0  0  0  0  0  0  0  0  0
    7.2081   -5.4107    0.0000 N   0  0  0  0  0  0  0  0  0  0  0  0
    7.2081   -6.9107    0.0000 C   0  0  0  0  0  0  0  0  0  0  0  0
    5.9091   -7.6607    0.0000 N   0  0  0  0  0  0  0  0  0  0  0  0
    5.9091   -9.1607    0.0000 N   0  0  0  0  0  0  0  0  0  0  0  0
    7.2081   -9.9107    0.0000 N   0  0  0  0  0  0  0  0  0  0  0  0
    8.5071   -9.1607    0.0000 N   0  0  0  0  0  0  0  0  0  0  0  0
    8.5071   -7.6607    0.0000 N   0  0  0  0  0  0  0  0  0  0  0  0
    7.2936   -2.2790    0.0000 C   0  0  0  0  0  0  0  0  0  0  0  0
    5.8670   -2.7425    0.0000 O   0  0  0  0  0  0  0  0  0  0  0  0
    0.7500   -1.2990    0.0000 C   0  0  0  0  0  0  0  0  0  0  0  0
    1.5000    0.0000    0.0000 C   0  0  0  0  0  0  0  0  0  0  0  0
    0.7500    1.2990    0.0000 C   0  0  0  0  0  0  0  0  0  0  0  0
   -0.7500    1.2990    0.0000 C   0  0  0  0  0  0  0  0  0  0  0  0
   -1.5000    0.0000    0.0000 C   0  0  0  0  0  0  0  0  0  0  0  0
   -0.7500   -1.2990    0.0000 C   0  0  0  0  0  0  0  0  0  0  0  0
   -2.1203   -1.9091    0.0000 C   0  0  0  0  0  0  0  0  0  0  0  0
   -2.5838   -0.4826    0.0000 C   0  0  0  0  0  0  0  0  0  0  0  0
   -4.0511   -0.1707    0.0000 C   0  0  0  0  0  0  0  0  0  0  0  0
   -5.0548   -1.2854    0.0000 C   0  0  0  0  0  0  0  0  0  0  0  0
   -4.5912   -2.7120    0.0000 C   0  0  0  0  0  0  0  0  0  0  0  0
   -3.1240   -3.0239    0.0000 C   0  0  0  0  0  0  0  0  0  0  0  0
   -3.5875   -4.4504    0.0000 C   0  0  0  0  0  0  0  0  0  0  0  0
   -4.9579   -3.8403    0.0000 C   0  0  0  0  0  0  0  0  0  0  0  0
   -6.1714   -4.7220    0.0000 C   0  0  0  0  0  0  0  0  0  0  0  0
   -6.0146   -6.2138    0.0000 C   0  0  0  0  0  0  0  0  0  0  0  0
   -4.6443   -6.8239    0.0000 C   0  0  0  0  0  0  0  0  0  0  0  0
   -3.4307   -5.9422    0.0000 C   0  0  0  0  0  0  0  0  0  0  0  0
   -2.6807   -7.2413    0.0000 C   0  0  0  0  0  0  0  0  0  0  0  0
   -4.0511   -7.8514    0.0000 C   0  0  0  0  0  0  0  0  0  0  0  0
   -4.2079   -9.3432    0.0000 C   0  0  0  0  0  0  0  0  0  0  0  0
   -2.9943  -10.2248    0.0000 C   0  0  0  0  0  0  0  0  0  0  0  0
   -1.6240   -9.6147    0.0000 C   0  0  0  0  0  0  0  0  0  0  0  0
   -1.4672   -8.1229    0.0000 C   0  0  0  0  0  0  0  0  0  0  0  0
  1  2  1  0
  2  3  1  0
  3  4  1  0
  4  5  1  0
  5  6  1  0
  6  7  1  0
  7  8  1  0
  8  9  1  0
  9 10  2  0
  9 11  1  0
 11 12  1  0
 12 13  2  0
 13 14  1  0
 14 15  2  0
 15 16  1  0
 16 17  1  0
 17 18  2  0
 18 19  1  0
 19 20  2  0
 20 21  1  0
 21 22  2  0
 21 23  1  0
 23 24  1  0
 24 25  2  0
 25 26  1  0
 26 27  2  0
 27 28  1  0
 28 29  2  0
 20 30  1  0
 30 31  2  0
  8 32  1  0
 32 33  2  0
 33 34  1  0
 34 35  2  0
 35 36  1  0
 36 37  2  0
 37 38  1  0
 38 39  2  0
 39 40  1  0
 40 41  2  0
 41 42  1  0
 42 43  2  0
 43 44  1  0
 44 45  2  0
 45 46  1  0
 46 47  2  0
 47 48  1  0
 48 49  2  0
 49 50  1  0
 50 51  2  0
 51 52  1  0
 52 53  2  0
 53 54  1  0
 54 55  2  0
 55  2  1  0
 16 12  1  0
 30 17  1  0
 37 32  1  0
 43 38  1  0
 49 44  1  0
 55 50  1  0
 29 24  1  0
M  END
>  <Title>  (722) 
idAAZVgen14

$$$$

     RDKit          2D

 46 53  0  0  0  0  0  0  0  0999 V2000
    5.3686   -3.7837    0.0000 C   0  0  0  0  0  0  0  0  0  0  0  0
    3.9258   -4.1942    0.0000 C   0  0  0  0  0  0  0  0  0  0  0  0
    3.2572   -2.8514    0.0000 C   0  0  0  0  0  0  0  0  0  0  0  0
    2.1487   -1.8409    0.0000 C   0  0  0  0  0  0  0  0  0  0  0  0
    0.7500   -1.2990    0.0000 C   0  0  0  0  0  0  0  0  0  0  0  0
    1.5000    0.0000    0.0000 C   0  0  0  0  0  0  0  0  0  0  0  0
    0.7500    1.2990    0.0000 C   0  0  0  0  0  0  0  0  0  0  0  0
   -0.7500    1.2990    0.0000 C   0  0  0  0  0  0  0  0  0  0  0  0
   -1.5000    0.0000    0.0000 C   0  0  0  0  0  0  0  0  0  0  0  0
   -0.7500   -1.2990    0.0000 C   0  0  0  0  0  0  0  0  0  0  0  0
   -2.1487   -1.8409    0.0000 C   0  0  0  0  0  0  0  0  0  0  0  0
   -2.4696   -0.3756    0.0000 C   0  0  0  0  0  0  0  0  0  0  0  0
   -3.8990    0.0791    0.0000 C   0  0  0  0  0  0  0  0  0  0  0  0
   -5.0075   -0.9314    0.0000 C   0  0  0  0  0  0  0  0  0  0  0  0
   -4.6866   -2.3967    0.0000 C   0  0  0  0  0  0  0  0  0  0  0  0
   -3.2572   -2.8514    0.0000 C   0  0  0  0  0  0  0  0  0  0  0  0
   -3.9258   -4.1942    0.0000 C   0  0  0  0  0  0  0  0  0  0  0  0
   -5.1501   -3.3275    0.0000 C   0  0  0  0  0  0  0  0  0  0  0  0
   -6.5128   -3.9545    0.0000 C   0  0  0  0  0  0  0  0  0  0  0  0
   -6.6512   -5.4481    0.0000 C   0  0  0  0  0  0  0  0  0  0  0  0
   -5.4269   -6.3147    0.0000 C   0  0  0  0  0  0  0  0  0  0  0  0
   -4.0642   -5.6878    0.0000 C   0  0  0  0  0  0  0  0  0  0  0  0
   -3.6537   -7.1305    0.0000 C   0  0  0  0  0  0  0  0  0  0  0  0
   -5.1424   -7.3149    0.0000 C   0  0  0  0  0  0  0  0  0  0  0  0
   -5.7270   -8.6962    0.0000 C   0  0  0  0  0  0  0  0  0  0  0  0
   -4.8231   -9.8932    0.0000 C   0  0  0  0  0  0  0  0  0  0  0  0
   -3.3345   -9.7089    0.0000 C   0  0  0  0  0  0  0  0  0  0  0  0
   -2.7498   -8.3276    0.0000 C   0  0  0  0  0  0  0  0  0  0  0  0
   -1.4745   -9.1172    0.0000 C   0  0  0  0  0  0  0  0  0  0  0  0
   -2.4504  -10.2563    0.0000 C   0  0  0  0  0  0  0  0  0  0  0  0
   -1.9519  -11.6710    0.0000 C   0  0  0  0  0  0  0  0  0  0  0  0
   -0.4774  -11.9467    0.0000 C   0  0  0  0  0  0  0  0  0  0  0  0
    0.4985  -10.8076    0.0000 C   0  0  0  0  0  0  0  0  0  0  0  0
   -0.0000   -9.3928    0.0000 C   0  0  0  0  0  0  0  0  0  0  0  0
    1.4745   -9.1172    0.0000 C   0  0  0  0  0  0  0  0  0  0  0  0
    1.5207  -10.6165    0.0000 C   0  0  0  0  0  0  0  0  0  0  0  0
    2.8422  -11.3261    0.0000 C   0  0  0  0  0  0  0  0  0  0  0  0
    4.1175  -10.5365    0.0000 C   0  0  0  0  0  0  0  0  0  0  0  0
    4.0713   -9.0372    0.0000 C   0  0  0  0  0  0  0  0  0  0  0  0
    2.7498   -8.3276    0.0000 C   0  0  0  0  0  0  0  0  0  0  0  0
    3.6537   -7.1305    0.0000 C   0  0  0  0  0  0  0  0  0  0  0  0
    4.6979   -8.2074    0.0000 C   0  0  0  0  0  0  0  0  0  0  0  0
    6.1526   -7.8415    0.0000 C   0  0  0  0  0  0  0  0  0  0  0  0
    6.5631   -6.3988    0.0000 C   0  0  0  0  0  0  0  0  0  0  0  0
    5.5189   -5.3219    0.0000 C   0  0  0  0  0  0  0  0  0  0  0  0
    4.0642   -5.6878    0.0000 C   0  0  0  0  0  0  0  0  0  0  0  0
  1  2  1  0
  2  3  1  0
  3  4  1  0
  4  5  1  0
  5  6  2  0
  6  7  1  0
  7  8  2  0
  8  9  1  0
  9 10  2  0
 10 11  1  0
 11 12  2  0
 12 13  1  0
 13 14  2  0
 14 15  1  0
 15 16  2  0
 16 17  1  0
 17 18  2  0
 18 19  1  0
 19 20  2  0
 20 21  1  0
 21 22  2  0
 22 23  1  0
 23 24  2  0
 24 25  1  0
 25 26  2  0
 26 27  1  0
 27 28  2  0
 28 29  1  0
 29 30  2  0
 30 31  1  0
 31 32  2  0
 32 33  1  0
 33 34  2  0
 34 35  1  0
 35 36  2  0
 36 37  1  0
 37 38  2  0
 38 39  1  0
 39 40  2  0
 40 41  1  0
 41 42  2  0
 42 43  1  0
 43 44  2  0
 44 45  1  0
 45 46  2  0
 46  2  1  0
 10  5  1  0
 16 11  1  0
 22 17  1  0
 28 23  1  0
 34 29  1  0
 40 35  1  0
 46 41  1  0
M  END
>  <Title>  (723) 
idAAZWgen14

$$$$

     RDKit          2D

 34 38  0  0  0  0  0  0  0  0999 V2000
   -2.6401   -3.1891    0.0000 C   0  0  0  0  0  0  0  0  0  0  0  0
   -1.2135   -2.7256    0.0000 C   0  0  0  0  0  0  0  0  0  0  0  0
   -0.0000   -3.6073    0.0000 N   0  0  0  0  0  0  0  0  0  0  0  0
    1.2135   -2.7256    0.0000 C   0  0  0  0  0  0  0  0  0  0  0  0
    2.6401   -3.1891    0.0000 C   0  0  0  0  0  0  0  0  0  0  0  0
    3.7548   -2.1855    0.0000 O   0  0  0  0  0  0  0  0  0  0  0  0
    2.9520   -4.6564    0.0000 N   0  0  0  0  0  0  0  0  0  0  0  0
    4.3786   -5.1199    0.0000 C   0  0  0  0  0  0  0  0  0  0  0  0
    5.5921   -4.2382    0.0000 N   0  0  0  0  0  0  0  0  0  0  0  0
    6.8056   -5.1199    0.0000 N   0  0  0  0  0  0  0  0  0  0  0  0
    6.3421   -6.5465    0.0000 N   0  0  0  0  0  0  0  0  0  0  0  0
    4.8421   -6.5465    0.0000 N   0  0  0  0  0  0  0  0  0  0  0  0
    3.9604   -7.7600    0.0000 C   0  0  0  0  0  0  0  0  0  0  0  0
    4.4239   -9.1866    0.0000 C   0  0  0  0  0  0  0  0  0  0  0  0
    3.2104  -10.0683    0.0000 C   0  0  0  0  0  0  0  0  0  0  0  0
    1.9969   -9.1866    0.0000 C   0  0  0  0  0  0  0  0  0  0  0  0
    0.5703   -9.6501    0.0000 O   0  0  0  0  0  0  0  0  0  0  0  0
   -0.5444   -8.6464    0.0000 C   0  0  0  0  0  0  0  0  0  0  0  0
   -0.2325   -7.1792    0.0000 O   0  0  0  0  0  0  0  0  0  0  0  0
   -1.9710   -9.1099    0.0000 N   0  0  0  0  0  0  0  0  0  0  0  0
   -3.0857   -8.1062    0.0000 C   0  0  0  0  0  0  0  0  0  0  0  0
   -2.7739   -6.6390    0.0000 N   0  0  0  0  0  0  0  0  0  0  0  0
   -3.8886   -5.6353    0.0000 N   0  0  0  0  0  0  0  0  0  0  0  0
   -5.3152   -6.0989    0.0000 N   0  0  0  0  0  0  0  0  0  0  0  0
   -5.6270   -7.5661    0.0000 N   0  0  0  0  0  0  0  0  0  0  0  0
   -4.5123   -8.5698    0.0000 N   0  0  0  0  0  0  0  0  0  0  0  0
    2.4604   -7.7600    0.0000 C   0  0  0  0  0  0  0  0  0  0  0  0
    1.5787   -6.5465    0.0000 O   0  0  0  0  0  0  0  0  0  0  0  0
    0.7500   -1.2990    0.0000 C   0  0  0  0  0  0  0  0  0  0  0  0
    1.5000    0.0000    0.0000 C   0  0  0  0  0  0  0  0  0  0  0  0
    0.7500    1.2990    0.0000 C   0  0  0  0  0  0  0  0  0  0  0  0
   -0.7500    1.2990    0.0000 C   0  0  0  0  0  0  0  0  0  0  0  0
   -1.5000    0.0000    0.0000 C   0  0  0  0  0  0  0  0  0  0  0  0
   -0.7500   -1.2990    0.0000 C   0  0  0  0  0  0  0  0  0  0  0  0
  1  2  1  0
  2  3  2  0
  3  4  1  0
  4  5  1  0
  5  6  2  0
  5  7  1  0
  7  8  1  0
  8  9  2  0
  9 10  1  0
 10 11  2  0
 11 12  1  0
 12 13  1  0
 13 14  2  0
 14 15  1  0
 15 16  2  0
 16 17  1  0
 17 18  1  0
 18 19  2  0
 18 20  1  0
 20 21  1  0
 21 22  2  0
 22 23  1  0
 23 24  2  0
 24 25  1  0
 25 26  2  0
 16 27  1  0
 27 28  2  0
  4 29  1  0
 29 30  2  0
 30 31  1  0
 31 32  2  0
 32 33  1  0
 33 34  2  0
 34  2  1  0
 12  8  1  0
 27 13  1  0
 34 29  1  0
 26 21  1  0
M  END
>  <Title>  (724) 
idAAZXgen14

$$$$

     RDKit          2D

106107  0  0  0  0  0  0  0  0999 V2000
    8.3455    4.3732    0.0000 C   0  0  0  0  0  0  0  0  0  0  0  0
    9.1396    4.4426    0.0000 C   0  0  0  0  0  0  0  0  0  0  0  0
    9.0804    5.9414    0.0000 C   0  0  0  0  0  0  0  0  0  0  0  0
    9.1640    7.4391    0.0000 C   0  0  0  0  0  0  0  0  0  0  0  0
    9.3895    8.9220    0.0000 C   0  0  0  0  0  0  0  0  0  0  0  0
    9.7550   10.3768    0.0000 C   0  0  0  0  0  0  0  0  0  0  0  0
   10.2571   11.7903    0.0000 C   0  0  0  0  0  0  0  0  0  0  0  0
   10.8913   13.1496    0.0000 C   0  0  0  0  0  0  0  0  0  0  0  0
   11.6518   14.4425    0.0000 C   0  0  0  0  0  0  0  0  0  0  0  0
   12.5318   15.6573    0.0000 C   0  0  0  0  0  0  0  0  0  0  0  0
   13.5233   16.7829    0.0000 C   0  0  0  0  0  0  0  0  0  0  0  0
   14.6172   17.8091    0.0000 C   0  0  0  0  0  0  0  0  0  0  0  0
   15.8038   18.7268    0.0000 C   0  0  0  0  0  0  0  0  0  0  0  0
   17.0722   19.5274    0.0000 C   0  0  0  0  0  0  0  0  0  0  0  0
   18.4110   20.2039    0.0000 C   0  0  0  0  0  0  0  0  0  0  0  0
   19.8081   20.7501    0.0000 C   0  0  0  0  0  0  0  0  0  0  0  0
   21.2507   21.1610    0.0000 C   0  0  0  0  0  0  0  0  0  0  0  0
   22.7258   21.4329    0.0000 C   0  0  0  0  0  0  0  0  0  0  0  0
   24.2202   21.5633    0.0000 C   0  0  0  0  0  0  0  0  0  0  0  0
   25.7201   21.5511    0.0000 C   0  0  0  0  0  0  0  0  0  0  0  0
   27.2121   21.3964    0.0000 C   0  0  0  0  0  0  0  0  0  0  0  0
   28.6826   21.1006    0.0000 C   0  0  0  0  0  0  0  0  0  0  0  0
   30.1184   20.6663    0.0000 C   0  0  0  0  0  0  0  0  0  0  0  0
   31.5064   20.0975    0.0000 C   0  0  0  0  0  0  0  0  0  0  0  0
   32.8340   19.3993    0.0000 C   0  0  0  0  0  0  0  0  0  0  0  0
   34.0893   18.5782    0.0000 C   0  0  0  0  0  0  0  0  0  0  0  0
   35.2608   17.6414    0.0000 C   0  0  0  0  0  0  0  0  0  0  0  0
   36.3379   16.5975    0.0000 C   0  0  0  0  0  0  0  0  0  0  0  0
   37.3110   15.4559    0.0000 C   0  0  0  0  0  0  0  0  0  0  0  0
   38.1711   14.2270    0.0000 C   0  0  0  0  0  0  0  0  0  0  0  0
   38.9105   12.9219    0.0000 C   0  0  0  0  0  0  0  0  0  0  0  0
   39.5225   11.5524    0.0000 C   0  0  0  0  0  0  0  0  0  0  0  0
   40.0016   10.1310    0.0000 C   0  0  0  0  0  0  0  0  0  0  0  0
   40.3434    8.6704    0.0000 C   0  0  0  0  0  0  0  0  0  0  0  0
   40.5448    7.1840    0.0000 C   0  0  0  0  0  0  0  0  0  0  0  0
   40.6040    5.6852    0.0000 C   0  0  0  0  0  0  0  0  0  0  0  0
   40.5204    4.1875    0.0000 C   0  0  0  0  0  0  0  0  0  0  0  0
   40.2949    2.7046    0.0000 C   0  0  0  0  0  0  0  0  0  0  0  0
   39.9294    1.2498    0.0000 C   0  0  0  0  0  0  0  0  0  0  0  0
   39.4273   -0.1637    0.0000 C   0  0  0  0  0  0  0  0  0  0  0  0
   38.7931   -1.5230    0.0000 C   0  0  0  0  0  0  0  0  0  0  0  0
   38.0326   -2.8159    0.0000 C   0  0  0  0  0  0  0  0  0  0  0  0
   37.1526   -4.0307    0.0000 C   0  0  0  0  0  0  0  0  0  0  0  0
   36.1611   -5.1563    0.0000 C   0  0  0  0  0  0  0  0  0  0  0  0
   35.0671   -6.1825    0.0000 C   0  0  0  0  0  0  0  0  0  0  0  0
   33.8806   -7.1002    0.0000 C   0  0  0  0  0  0  0  0  0  0  0  0
   32.6121   -7.9008    0.0000 C   0  0  0  0  0  0  0  0  0  0  0  0
   31.2733   -8.5773    0.0000 C   0  0  0  0  0  0  0  0  0  0  0  0
   29.8763   -9.1235    0.0000 C   0  0  0  0  0  0  0  0  0  0  0  0
   28.4337   -9.5344    0.0000 C   0  0  0  0  0  0  0  0  0  0  0  0
   26.9585   -9.8063    0.0000 C   0  0  0  0  0  0  0  0  0  0  0  0
   25.4642   -9.9367    0.0000 C   0  0  0  0  0  0  0  0  0  0  0  0
   23.9643   -9.9245    0.0000 C   0  0  0  0  0  0  0  0  0  0  0  0
   22.4723   -9.7698    0.0000 C   0  0  0  0  0  0  0  0  0  0  0  0
   21.0017   -9.4740    0.0000 C   0  0  0  0  0  0  0  0  0  0  0  0
   19.5660   -9.0397    0.0000 C   0  0  0  0  0  0  0  0  0  0  0  0
   18.1780   -8.4709    0.0000 C   0  0  0  0  0  0  0  0  0  0  0  0
   16.8504   -7.7728    0.0000 C   0  0  0  0  0  0  0  0  0  0  0  0
   15.5951   -6.9516    0.0000 C   0  0  0  0  0  0  0  0  0  0  0  0
   14.4236   -6.0148    0.0000 C   0  0  0  0  0  0  0  0  0  0  0  0
   13.3465   -4.9709    0.0000 C   0  0  0  0  0  0  0  0  0  0  0  0
   12.3734   -3.8293    0.0000 C   0  0  0  0  0  0  0  0  0  0  0  0
   11.5133   -2.6004    0.0000 C   0  0  0  0  0  0  0  0  0  0  0  0
   10.7739   -1.2953    0.0000 C   0  0  0  0  0  0  0  0  0  0  0  0
   10.1619    0.0742    0.0000 C   0  0  0  0  0  0  0  0  0  0  0  0
    9.6828    1.4956    0.0000 C   0  0  0  0  0  0  0  0  0  0  0  0
    9.0976    0.0000    0.0000 C   0  0  0  0  0  0  0  0  0  0  0  0
    8.9910   -1.3887    0.0000 C   0  0  0  0  0  0  0  0  0  0  0  0
    8.6736   -2.7449    0.0000 C   0  0  0  0  0  0  0  0  0  0  0  0
    8.1530   -4.0368    0.0000 C   0  0  0  0  0  0  0  0  0  0  0  0
    7.4412   -5.2340    0.0000 C   0  0  0  0  0  0  0  0  0  0  0  0
    6.5550   -6.3086    0.0000 C   0  0  0  0  0  0  0  0  0  0  0  0
    5.5152   -7.2353    0.0000 C   0  0  0  0  0  0  0  0  0  0  0  0
    4.3461   -7.9924    0.0000 C   0  0  0  0  0  0  0  0  0  0  0  0
    3.0751   -8.5621    0.0000 C   0  0  0  0  0  0  0  0  0  0  0  0
    1.7321   -8.9312    0.0000 C   0  0  0  0  0  0  0  0  0  0  0  0
    0.3485   -9.0909    0.0000 C   0  0  0  0  0  0  0  0  0  0  0  0
   -1.0433   -9.0376    0.0000 C   0  0  0  0  0  0  0  0  0  0  0  0
   -2.4107   -8.7724    0.0000 C   0  0  0  0  0  0  0  0  0  0  0  0
   -3.7215   -8.3016    0.0000 C   0  0  0  0  0  0  0  0  0  0  0  0
   -4.9452   -7.6362    0.0000 C   0  0  0  0  0  0  0  0  0  0  0  0
   -6.0529   -6.7919    0.0000 C   0  0  0  0  0  0  0  0  0  0  0  0
   -7.0187   -5.7883    0.0000 C   0  0  0  0  0  0  0  0  0  0  0  0
   -7.8200   -4.6491    0.0000 C   0  0  0  0  0  0  0  0  0  0  0  0
   -8.4381   -3.4008    0.0000 C   0  0  0  0  0  0  0  0  0  0  0  0
   -8.8583   -2.0729    0.0000 C   0  0  0  0  0  0  0  0  0  0  0  0
   -9.0709   -0.6964    0.0000 C   0  0  0  0  0  0  0  0  0  0  0  0
   -9.0709    0.6964    0.0000 C   0  0  0  0  0  0  0  0  0  0  0  0
   -8.8583    2.0729    0.0000 C   0  0  0  0  0  0  0  0  0  0  0  0
   -8.4381    3.4008    0.0000 C   0  0  0  0  0  0  0  0  0  0  0  0
   -7.8200    4.6491    0.0000 C   0  0  0  0  0  0  0  0  0  0  0  0
   -7.0187    5.7883    0.0000 C   0  0  0  0  0  0  0  0  0  0  0  0
   -6.0529    6.7919    0.0000 C   0  0  0  0  0  0  0  0  0  0  0  0
   -4.9452    7.6362    0.0000 C   0  0  0  0  0  0  0  0  0  0  0  0
   -3.7215    8.3016    0.0000 C   0  0  0  0  0  0  0  0  0  0  0  0
   -2.4107    8.7724    0.0000 C   0  0  0  0  0  0  0  0  0  0  0  0
   -1.0433    9.0376    0.0000 C   0  0  0  0  0  0  0  0  0  0  0  0
    0.3485    9.0909    0.0000 C   0  0  0  0  0  0  0  0  0  0  0  0
    1.7321    8.9312    0.0000 C   0  0  0  0  0  0  0  0  0  0  0  0
    3.0751    8.5621    0.0000 C   0  0  0  0  0  0  0  0  0  0  0  0
    4.3461    7.9924    0.0000 C   0  0  0  0  0  0  0  0  0  0  0  0
    5.5152    7.2353    0.0000 C   0  0  0  0  0  0  0  0  0  0  0  0
    6.5550    6.3086    0.0000 C   0  0  0  0  0  0  0  0  0  0  0  0
    7.4412    5.2340    0.0000 C   0  0  0  0  0  0  0  0  0  0  0  0
    8.1530    4.0368    0.0000 C   0  0  0  0  0  0  0  0  0  0  0  0
    9.3410    2.9561    0.0000 C   0  0  0  0  0  0  0  0  0  0  0  0
  1  2  1  0
  2  3  1  0
  3  4  1  0
  4  5  1  0
  5  6  1  0
  6  7  1  0
  7  8  1  0
  8  9  1  0
  9 10  1  0
 10 11  1  0
 11 12  1  0
 12 13  1  0
 13 14  1  0
 14 15  1  0
 15 16  1  0
 16 17  1  0
 17 18  1  0
 18 19  1  0
 19 20  1  0
 20 21  1  0
 21 22  1  0
 22 23  1  0
 23 24  1  0
 24 25  1  0
 25 26  1  0
 26 27  1  0
 27 28  1  0
 28 29  1  0
 29 30  1  0
 30 31  1  0
 31 32  1  0
 32 33  1  0
 33 34  1  0
 34 35  1  0
 35 36  1  0
 36 37  1  0
 37 38  1  0
 38 39  1  0
 39 40  1  0
 40 41  1  0
 41 42  1  0
 42 43  1  0
 43 44  1  0
 44 45  1  0
 45 46  1  0
 46 47  1  0
 47 48  1  0
 48 49  1  0
 49 50  1  0
 50 51  1  0
 51 52  1  0
 52 53  1  0
 53 54  1  0
 54 55  1  0
 55 56  1  0
 56 57  1  0
 57 58  1  0
 58 59  1  0
 59 60  1  0
 60 61  1  0
 61 62  1  0
 62 63  1  0
 63 64  1  0
 64 65  1  0
 65 66  1  0
 66 67  1  0
 67 68  1  0
 68 69  1  0
 69 70  1  0
 70 71  1  0
 71 72  1  0
 72 73  1  0
 73 74  1  0
 74 75  1  0
 75 76  1  0
 76 77  1  0
 77 78  1  0
 78 79  1  0
 79 80  1  0
 80 81  1  0
 81 82  1  0
 82 83  1  0
 83 84  1  0
 84 85  1  0
 85 86  1  0
 86 87  1  0
 87 88  1  0
 88 89  1  0
 89 90  1  0
 90 91  1  0
 91 92  2  0
 92 93  1  0
 93 94  2  0
 94 95  1  0
 95 96  2  0
 96 97  1  0
 97 98  2  0
 98 99  1  0
 99100  2  0
100101  1  0
101102  2  0
102103  1  0
103104  2  0
104105  1  0
105106  2  0
106  2  1  0
106 66  1  0
M  END
>  <Title>  (725) 
idAAZYgen14

$$$$

     RDKit          2D

 22 24  0  0  0  0  0  0  0  0999 V2000
    3.0000    0.0000    0.0000 C   0  0  0  0  0  0  0  0  0  0  0  0
    1.5000    0.0000    0.0000 C   0  0  0  0  0  0  0  0  0  0  0  0
    0.7500   -1.2990    0.0000 C   0  0  0  0  0  0  0  0  0  0  0  0
   -0.7500   -1.2990    0.0000 C   0  0  0  0  0  0  0  0  0  0  0  0
   -1.5000    0.0000    0.0000 C   0  0  0  0  0  0  0  0  0  0  0  0
   -3.0000    0.0000    0.0000 C   0  0  0  0  0  0  0  0  0  0  0  0
   -3.7500   -1.2990    0.0000 O   0  0  0  0  0  0  0  0  0  0  0  0
   -3.7500    1.2990    0.0000 N   0  0  0  0  0  0  0  0  0  0  0  0
   -5.2500    1.2990    0.0000 C   0  0  0  0  0  0  0  0  0  0  0  0
   -6.1317    0.0855    0.0000 N   0  0  0  0  0  0  0  0  0  0  0  0
   -7.5583    0.5490    0.0000 N   0  0  0  0  0  0  0  0  0  0  0  0
   -7.5583    2.0490    0.0000 N   0  0  0  0  0  0  0  0  0  0  0  0
   -6.1317    2.5126    0.0000 N   0  0  0  0  0  0  0  0  0  0  0  0
   -5.6682    3.9391    0.0000 C   0  0  0  0  0  0  0  0  0  0  0  0
   -4.2009    4.2510    0.0000 C   0  0  0  0  0  0  0  0  0  0  0  0
   -3.7374    5.6776    0.0000 C   0  0  0  0  0  0  0  0  0  0  0  0
   -4.7411    6.7923    0.0000 C   0  0  0  0  0  0  0  0  0  0  0  0
   -4.2776    8.2189    0.0000 O   0  0  0  0  0  0  0  0  0  0  0  0
   -6.2083    6.4805    0.0000 C   0  0  0  0  0  0  0  0  0  0  0  0
   -6.6718    5.0539    0.0000 C   0  0  0  0  0  0  0  0  0  0  0  0
   -0.7500    1.2990    0.0000 C   0  0  0  0  0  0  0  0  0  0  0  0
    0.7500    1.2990    0.0000 C   0  0  0  0  0  0  0  0  0  0  0  0
  1  2  1  0
  2  3  2  0
  3  4  1  0
  4  5  2  0
  5  6  1  0
  6  7  2  0
  6  8  1  0
  8  9  1  0
  9 10  2  0
 10 11  1  0
 11 12  2  0
 12 13  1  0
 13 14  1  0
 14 15  2  0
 15 16  1  0
 16 17  2  0
 17 18  1  0
 17 19  1  0
 19 20  2  0
  5 21  1  0
 21 22  2  0
 22  2  1  0
 13  9  1  0
 20 14  1  0
M  END
>  <Title>  (726) 
idAAZZgen14

$$$$

     RDKit          2D

 18 18  0  0  0  0  0  0  0  0999 V2000
    7.5000   -2.5981    0.0000 C   0  0  0  0  0  0  0  0  0  0  0  0
    6.0000   -2.5981    0.0000 C   0  0  0  0  0  0  0  0  0  0  0  0
    5.2500   -1.2990    0.0000 C   0  0  0  0  0  0  0  0  0  0  0  0
    3.7500   -1.2990    0.0000 N   0  0  0  0  0  0  0  0  0  0  0  0
    3.0000    0.0000    0.0000 C   0  0  0  0  0  0  0  0  0  0  0  0
    1.5000    0.0000    0.0000 C   0  0  0  0  0  0  0  0  0  0  0  0
    0.7500   -1.2990    0.0000 C   0  0  0  0  0  0  0  0  0  0  0  0
   -0.7500   -1.2990    0.0000 C   0  0  0  0  0  0  0  0  0  0  0  0
   -1.5000    0.0000    0.0000 C   0  0  0  0  0  0  0  0  0  0  0  0
   -3.0000    0.0000    0.0000 F   0  0  0  0  0  0  0  0  0  0  0  0
   -0.7500    1.2990    0.0000 C   0  0  0  0  0  0  0  0  0  0  0  0
    0.7500    1.2990    0.0000 C   0  0  0  0  0  0  0  0  0  0  0  0
    3.0000   -2.5981    0.0000 C   0  0  0  0  0  0  0  0  0  0  0  0
    3.7500   -3.8971    0.0000 C   0  0  0  0  0  0  0  0  0  0  0  0
    1.5000   -2.5981    0.0000 C   0  0  0  0  0  0  0  0  0  0  0  0
    0.7500   -3.8971    0.0000 C   0  0  0  0  0  0  0  0  0  0  0  0
   -0.7500   -3.8971    0.0000 C   0  0  0  0  0  0  0  0  0  0  0  0
    1.5000   -5.1962    0.0000 C   0  0  0  0  0  0  0  0  0  0  0  0
  1  2  1  0
  2  3  1  0
  3  4  1  0
  4  5  1  0
  5  6  1  0
  6  7  2  0
  7  8  1  0
  8  9  2  0
  9 10  1  0
  9 11  1  0
 11 12  2  0
  4 13  1  0
 13 14  1  0
 13 15  1  0
 15 16  1  0
 16 17  1  0
 16 18  1  0
 12  6  1  0
M  END
>  <Title>  (727) 
idABAAgen14

$$$$

     RDKit          2D

 14 14  0  0  0  0  0  0  0  0999 V2000
    5.0260   -6.4952    0.0000 C   0  0  0  0  0  0  0  0  0  0  0  0
    5.7760   -5.1962    0.0000 C   0  0  0  0  0  0  0  0  0  0  0  0
    5.0260   -3.8971    0.0000 C   0  0  0  0  0  0  0  0  0  0  0  0
    5.7760   -2.5981    0.0000 C   0  0  0  0  0  0  0  0  0  0  0  0
    7.2760   -2.5981    0.0000 C   0  0  0  0  0  0  0  0  0  0  0  0
    5.0260   -1.2990    0.0000 N   0  0  0  0  0  0  0  0  0  0  0  0
    3.5260   -1.2990    0.0000 C   0  0  0  0  0  0  0  0  0  0  0  0
    2.7760   -2.5981    0.0000 O   0  0  0  0  0  0  0  0  0  0  0  0
    2.7760    0.0000    0.0000 N   0  0  0  0  0  0  0  0  0  0  0  0
    1.2760    0.0000    0.0000 C   0  0  0  0  0  0  0  0  0  0  0  0
    0.3943    1.2135    0.0000 N   0  0  0  0  0  0  0  0  0  0  0  0
   -1.0323    0.7500    0.0000 N   0  0  0  0  0  0  0  0  0  0  0  0
   -1.0323   -0.7500    0.0000 N   0  0  0  0  0  0  0  0  0  0  0  0
    0.3943   -1.2135    0.0000 N   0  0  0  0  0  0  0  0  0  0  0  0
  1  2  1  0
  2  3  1  0
  3  4  1  0
  4  5  1  0
  4  6  1  0
  6  7  1  0
  7  8  2  0
  7  9  1  0
  9 10  1  0
 10 11  2  0
 11 12  1  0
 12 13  2  0
 13 14  1  0
 14 10  1  0
M  END
>  <Title>  (728) 
idABABgen14

$$$$

     RDKit          2D

 12 12  0  0  0  0  0  0  0  0999 V2000
    7.2760   -0.0000    0.0000 C   0  0  0  0  0  0  0  0  0  0  0  0
    5.7760   -0.0000    0.0000 C   0  0  0  0  0  0  0  0  0  0  0  0
    5.0260    1.2990    0.0000 C   0  0  0  0  0  0  0  0  0  0  0  0
    5.7760    2.5981    0.0000 C   0  0  0  0  0  0  0  0  0  0  0  0
    3.5260    1.2990    0.0000 C   0  0  0  0  0  0  0  0  0  0  0  0
    2.7760    0.0000    0.0000 C   0  0  0  0  0  0  0  0  0  0  0  0
    3.5260   -1.2990    0.0000 C   0  0  0  0  0  0  0  0  0  0  0  0
    1.2760    0.0000    0.0000 N   0  0  0  0  0  0  0  0  0  0  0  0
    0.3943    1.2135    0.0000 C   0  0  0  0  0  0  0  0  0  0  0  0
   -1.0323    0.7500    0.0000 C   0  0  0  0  0  0  0  0  0  0  0  0
   -1.0323   -0.7500    0.0000 C   0  0  0  0  0  0  0  0  0  0  0  0
    0.3943   -1.2135    0.0000 C   0  0  0  0  0  0  0  0  0  0  0  0
  1  2  1  0
  2  3  1  0
  3  4  1  0
  3  5  1  0
  5  6  1  0
  6  7  1  0
  6  8  1  0
  8  9  1  0
  9 10  2  0
 10 11  1  0
 11 12  2  0
 12  8  1  0
M  END
>  <Title>  (729) 
idABACgen14

$$$$

     RDKit          2D

  7  7  0  0  0  0  0  0  0  0999 V2000
    3.5260   -1.2990    0.0000 C   0  0  0  0  0  0  0  0  0  0  0  0
    2.7760    0.0000    0.0000 C   0  0  0  0  0  0  0  0  0  0  0  0
    1.2760    0.0000    0.0000 C   0  0  0  0  0  0  0  0  0  0  0  0
    0.3943    1.2135    0.0000 C   0  0  0  0  0  0  0  0  0  0  0  0
   -1.0323    0.7500    0.0000 C   0  0  0  0  0  0  0  0  0  0  0  0
   -1.0323   -0.7500    0.0000 C   0  0  0  0  0  0  0  0  0  0  0  0
    0.3943   -1.2135    0.0000 C   0  0  0  0  0  0  0  0  0  0  0  0
  1  2  2  0
  2  3  1  0
  3  4  2  0
  4  5  1  0
  5  6  2  0
  6  7  2  0
  7  3  1  0
M  END
>  <Title>  (730) 
idABADgen14

$$$$

     RDKit          2D

  6  6  0  0  0  0  0  0  0  0999 V2000
    2.7760    0.0000    0.0000 C   0  0  0  0  0  0  0  0  0  0  0  0
    1.2760    0.0000    0.0000 C   0  0  0  0  0  0  0  0  0  0  0  0
    0.3943    1.2135    0.0000 N   0  0  0  0  0  0  0  0  0  0  0  0
   -1.0323    0.7500    0.0000 C   0  0  0  0  0  0  0  0  0  0  0  0
   -1.0323   -0.7500    0.0000 C   0  0  0  0  0  0  0  0  0  0  0  0
    0.3943   -1.2135    0.0000 N   0  0  0  0  0  0  0  0  0  0  0  0
  1  2  1  0
  2  3  2  0
  3  4  1  0
  4  5  1  0
  5  6  2  0
  6  2  1  0
M  END
>  <Title>  (731) 
idABAEgen14

$$$$

     RDKit          2D

 17 16  0  0  0  0  0  0  0  0999 V2000
    0.0000    0.0000    0.0000 C   0  0  0  0  0  0  0  0  0  0  0  0
    1.2990    0.7500    0.0000 C   0  0  0  0  0  0  0  0  0  0  0  0
    2.5981   -0.0000    0.0000 C   0  0  0  0  0  0  0  0  0  0  0  0
    1.2990    2.2500    0.0000 C   0  0  0  0  0  0  0  0  0  0  0  0
    2.5981    3.0000    0.0000 C   0  0  0  0  0  0  0  0  0  0  0  0
    2.5981    4.5000    0.0000 C   0  0  0  0  0  0  0  0  0  0  0  0
    3.8971    2.2500    0.0000 C   0  0  0  0  0  0  0  0  0  0  0  0
    5.1962    3.0000    0.0000 C   0  0  0  0  0  0  0  0  0  0  0  0
    6.4952    2.2500    0.0000 C   0  0  0  0  0  0  0  0  0  0  0  0
    6.4952    0.7500    0.0000 O   0  0  0  0  0  0  0  0  0  0  0  0
    7.7942    3.0000    0.0000 N   0  0  0  0  0  0  0  0  0  0  0  0
    9.0933    2.2500    0.0000 C   0  0  0  0  0  0  0  0  0  0  0  0
   10.3923    3.0000    0.0000 C   0  0  0  0  0  0  0  0  0  0  0  0
    9.0933    0.7500    0.0000 C   0  0  0  0  0  0  0  0  0  0  0  0
   10.3923    0.0000    0.0000 C   0  0  0  0  0  0  0  0  0  0  0  0
   10.3923   -1.5000    0.0000 C   0  0  0  0  0  0  0  0  0  0  0  0
   11.6913    0.7500    0.0000 C   0  0  0  0  0  0  0  0  0  0  0  0
  1  2  1  0
  2  3  1  0
  2  4  1  0
  4  5  1  0
  5  6  1  0
  5  7  1  0
  7  8  1  0
  8  9  1  0
  9 10  2  0
  9 11  1  0
 11 12  1  0
 12 13  1  0
 12 14  1  0
 14 15  1  0
 15 16  1  0
 15 17  1  0
M  END
>  <Title>  (732) 
idABAFgen14

$$$$

     RDKit          2D

 35 39  0  0  0  0  0  0  0  0999 V2000
   -3.0000   -2.5981    0.0000 C   0  0  0  0  0  0  0  0  0  0  0  0
   -1.5000   -2.5981    0.0000 C   0  0  0  0  0  0  0  0  0  0  0  0
   -0.7500   -3.8971    0.0000 C   0  0  0  0  0  0  0  0  0  0  0  0
    0.7500   -3.8971    0.0000 C   0  0  0  0  0  0  0  0  0  0  0  0
    1.5000   -2.5981    0.0000 C   0  0  0  0  0  0  0  0  0  0  0  0
    3.0000   -2.5981    0.0000 C   0  0  0  0  0  0  0  0  0  0  0  0
    3.7500   -1.2990    0.0000 O   0  0  0  0  0  0  0  0  0  0  0  0
    3.7500   -3.8971    0.0000 N   0  0  0  0  0  0  0  0  0  0  0  0
    5.2500   -3.8971    0.0000 C   0  0  0  0  0  0  0  0  0  0  0  0
    6.1317   -2.6836    0.0000 N   0  0  0  0  0  0  0  0  0  0  0  0
    7.5583   -3.1471    0.0000 N   0  0  0  0  0  0  0  0  0  0  0  0
    7.5583   -4.6471    0.0000 N   0  0  0  0  0  0  0  0  0  0  0  0
    6.1317   -5.1106    0.0000 N   0  0  0  0  0  0  0  0  0  0  0  0
    5.6682   -6.5372    0.0000 N   0  0  0  0  0  0  0  0  0  0  0  0
    6.5498   -7.7508    0.0000 C   0  0  0  0  0  0  0  0  0  0  0  0
    5.6682   -8.9643    0.0000 C   0  0  0  0  0  0  0  0  0  0  0  0
    4.2416   -8.5008    0.0000 N   0  0  0  0  0  0  0  0  0  0  0  0
    3.0280   -9.3824    0.0000 C   0  0  0  0  0  0  0  0  0  0  0  0
    3.1848  -10.8742    0.0000 O   0  0  0  0  0  0  0  0  0  0  0  0
    1.6577   -8.7723    0.0000 N   0  0  0  0  0  0  0  0  0  0  0  0
    0.4442   -9.6540    0.0000 C   0  0  0  0  0  0  0  0  0  0  0  0
   -0.9261   -9.0439    0.0000 N   0  0  0  0  0  0  0  0  0  0  0  0
   -2.1396   -9.9256    0.0000 N   0  0  0  0  0  0  0  0  0  0  0  0
   -1.9829  -11.4174    0.0000 N   0  0  0  0  0  0  0  0  0  0  0  0
   -0.6125  -12.0275    0.0000 N   0  0  0  0  0  0  0  0  0  0  0  0
    0.6010  -11.1458    0.0000 N   0  0  0  0  0  0  0  0  0  0  0  0
    4.2416   -7.0008    0.0000 C   0  0  0  0  0  0  0  0  0  0  0  0
    3.0280   -6.1191    0.0000 O   0  0  0  0  0  0  0  0  0  0  0  0
    0.7500   -1.2990    0.0000 C   0  0  0  0  0  0  0  0  0  0  0  0
    1.5000    0.0000    0.0000 C   0  0  0  0  0  0  0  0  0  0  0  0
    0.7500    1.2990    0.0000 C   0  0  0  0  0  0  0  0  0  0  0  0
   -0.7500    1.2990    0.0000 C   0  0  0  0  0  0  0  0  0  0  0  0
   -1.5000    2.5981    0.0000 O   0  0  0  0  0  0  0  0  0  0  0  0
   -1.5000    0.0000    0.0000 C   0  0  0  0  0  0  0  0  0  0  0  0
   -0.7500   -1.2990    0.0000 C   0  0  0  0  0  0  0  0  0  0  0  0
  1  2  1  0
  2  3  2  0
  3  4  1  0
  4  5  2  0
  5  6  1  0
  6  7  2  0
  6  8  1  0
  8  9  1  0
  9 10  2  0
 10 11  1  0
 11 12  2  0
 12 13  1  0
 13 14  1  0
 14 15  1  0
 15 16  1  0
 16 17  1  0
 17 18  1  0
 18 19  2  0
 18 20  1  0
 20 21  1  0
 21 22  2  0
 22 23  1  0
 23 24  2  0
 24 25  1  0
 25 26  2  0
 17 27  1  0
 27 28  2  0
  5 29  1  0
 29 30  2  0
 30 31  1  0
 31 32  2  0
 32 33  1  0
 32 34  1  0
 34 35  2  0
 35  2  1  0
 13  9  1  0
 27 14  1  0
 35 29  1  0
 26 21  1  0
M  END
>  <Title>  (733) 
idABAGgen14

$$$$

     RDKit          2D

 43 48  0  0  0  0  0  0  0  0999 V2000
   -3.1771   -5.9156    0.0000 C   0  0  0  0  0  0  0  0  0  0  0  0
   -1.9635   -5.0339    0.0000 C   0  0  0  0  0  0  0  0  0  0  0  0
   -0.7500   -5.9156    0.0000 C   0  0  0  0  0  0  0  0  0  0  0  0
    0.7500   -5.9156    0.0000 C   0  0  0  0  0  0  0  0  0  0  0  0
    1.9635   -5.0339    0.0000 C   0  0  0  0  0  0  0  0  0  0  0  0
    3.1771   -5.9156    0.0000 C   0  0  0  0  0  0  0  0  0  0  0  0
    4.5474   -5.3055    0.0000 O   0  0  0  0  0  0  0  0  0  0  0  0
    3.0203   -7.4073    0.0000 N   0  0  0  0  0  0  0  0  0  0  0  0
    4.2338   -8.2890    0.0000 C   0  0  0  0  0  0  0  0  0  0  0  0
    5.6604   -7.8255    0.0000 N   0  0  0  0  0  0  0  0  0  0  0  0
    6.5420   -9.0390    0.0000 N   0  0  0  0  0  0  0  0  0  0  0  0
    5.6604  -10.2525    0.0000 N   0  0  0  0  0  0  0  0  0  0  0  0
    4.2338   -9.7890    0.0000 N   0  0  0  0  0  0  0  0  0  0  0  0
    3.0203  -10.6707    0.0000 N   0  0  0  0  0  0  0  0  0  0  0  0
    3.0203  -12.1707    0.0000 C   0  0  0  0  0  0  0  0  0  0  0  0
    1.5937  -12.6342    0.0000 C   0  0  0  0  0  0  0  0  0  0  0  0
    0.7120  -11.4207    0.0000 N   0  0  0  0  0  0  0  0  0  0  0  0
   -0.7880  -11.4207    0.0000 C   0  0  0  0  0  0  0  0  0  0  0  0
   -1.5380  -12.7197    0.0000 O   0  0  0  0  0  0  0  0  0  0  0  0
   -1.5380  -10.1217    0.0000 N   0  0  0  0  0  0  0  0  0  0  0  0
   -3.0380  -10.1217    0.0000 C   0  0  0  0  0  0  0  0  0  0  0  0
   -3.7880   -8.8226    0.0000 N   0  0  0  0  0  0  0  0  0  0  0  0
   -5.2880   -8.8226    0.0000 N   0  0  0  0  0  0  0  0  0  0  0  0
   -6.0380  -10.1217    0.0000 N   0  0  0  0  0  0  0  0  0  0  0  0
   -5.2880  -11.4207    0.0000 N   0  0  0  0  0  0  0  0  0  0  0  0
   -3.7880  -11.4207    0.0000 N   0  0  0  0  0  0  0  0  0  0  0  0
    1.5937  -10.2072    0.0000 C   0  0  0  0  0  0  0  0  0  0  0  0
    1.1301   -8.7806    0.0000 O   0  0  0  0  0  0  0  0  0  0  0  0
    2.4271   -3.6073    0.0000 C   0  0  0  0  0  0  0  0  0  0  0  0
    3.9271   -3.6073    0.0000 O   0  0  0  0  0  0  0  0  0  0  0  0
    1.9635   -2.1807    0.0000 O   0  0  0  0  0  0  0  0  0  0  0  0
    0.7500   -1.2990    0.0000 C   0  0  0  0  0  0  0  0  0  0  0  0
    1.5000    0.0000    0.0000 C   0  0  0  0  0  0  0  0  0  0  0  0
    0.7500    1.2990    0.0000 C   0  0  0  0  0  0  0  0  0  0  0  0
   -0.7500    1.2990    0.0000 C   0  0  0  0  0  0  0  0  0  0  0  0
   -1.5000    0.0000    0.0000 C   0  0  0  0  0  0  0  0  0  0  0  0
   -0.7500   -1.2990    0.0000 C   0  0  0  0  0  0  0  0  0  0  0  0
   -1.9635   -2.1807    0.0000 C   0  0  0  0  0  0  0  0  0  0  0  0
   -2.9672   -1.0660    0.0000 C   0  0  0  0  0  0  0  0  0  0  0  0
   -4.4344   -1.3779    0.0000 C   0  0  0  0  0  0  0  0  0  0  0  0
   -4.8980   -2.8045    0.0000 C   0  0  0  0  0  0  0  0  0  0  0  0
   -3.8943   -3.9192    0.0000 C   0  0  0  0  0  0  0  0  0  0  0  0
   -2.4271   -3.6073    0.0000 C   0  0  0  0  0  0  0  0  0  0  0  0
  1  2  1  0
  2  3  1  0
  3  4  1  0
  4  5  1  0
  5  6  1  0
  6  7  2  0
  6  8  1  0
  8  9  1  0
  9 10  2  0
 10 11  1  0
 11 12  2  0
 12 13  1  0
 13 14  1  0
 14 15  1  0
 15 16  1  0
 16 17  1  0
 17 18  1  0
 18 19  2  0
 18 20  1  0
 20 21  1  0
 21 22  2  0
 22 23  1  0
 23 24  2  0
 24 25  1  0
 25 26  2  0
 17 27  1  0
 27 28  2  0
  5 29  1  0
 29 30  2  0
 29 31  1  0
 31 32  1  0
 32 33  2  0
 33 34  1  0
 34 35  2  0
 35 36  1  0
 36 37  2  0
 37 38  1  0
 38 39  2  0
 39 40  1  0
 40 41  2  0
 41 42  1  0
 42 43  2  0
 43  2  1  0
 13  9  1  0
 27 14  1  0
 37 32  1  0
 43 38  1  0
 26 21  1  0
M  END
>  <Title>  (734) 
idABAHgen14

$$$$

     RDKit          2D

 15 15  0  0  0  0  0  0  0  0999 V2000
    9.7500   -3.8971    0.0000 C   0  0  0  0  0  0  0  0  0  0  0  0
    8.2500   -3.8971    0.0000 C   0  0  0  0  0  0  0  0  0  0  0  0
    7.5000   -5.1962    0.0000 C   0  0  0  0  0  0  0  0  0  0  0  0
    7.5000   -2.5981    0.0000 N   0  0  0  0  0  0  0  0  0  0  0  0
    6.0000   -2.5981    0.0000 C   0  0  0  0  0  0  0  0  0  0  0  0
    5.2500   -1.2990    0.0000 C   0  0  0  0  0  0  0  0  0  0  0  0
    6.0000    0.0000    0.0000 O   0  0  0  0  0  0  0  0  0  0  0  0
    3.7500   -1.2990    0.0000 N   0  0  0  0  0  0  0  0  0  0  0  0
    3.0000    0.0000    0.0000 C   0  0  0  0  0  0  0  0  0  0  0  0
    1.5000    0.0000    0.0000 C   0  0  0  0  0  0  0  0  0  0  0  0
    0.7500   -1.2990    0.0000 C   0  0  0  0  0  0  0  0  0  0  0  0
   -0.7500   -1.2990    0.0000 C   0  0  0  0  0  0  0  0  0  0  0  0
   -1.5000    0.0000    0.0000 C   0  0  0  0  0  0  0  0  0  0  0  0
   -0.7500    1.2990    0.0000 C   0  0  0  0  0  0  0  0  0  0  0  0
    0.7500    1.2990    0.0000 C   0  0  0  0  0  0  0  0  0  0  0  0
  1  2  1  0
  2  3  1  0
  2  4  1  0
  4  5  1  0
  5  6  1  0
  6  7  2  0
  6  8  1  0
  8  9  1  0
  9 10  1  0
 10 11  1  0
 11 12  2  0
 12 13  1  0
 13 14  1  0
 14 15  2  0
 15 10  1  0
M  END
>  <Title>  (735) 
idABAIgen14

$$$$

     RDKit          2D

  8  8  0  0  0  0  0  0  0  0999 V2000
    4.5000    0.0000    0.0000 N   0  0  0  0  0  0  0  0  0  0  0  0
    3.0000    0.0000    0.0000 C   0  0  0  0  0  0  0  0  0  0  0  0
    1.5000    0.0000    0.0000 C   0  0  0  0  0  0  0  0  0  0  0  0
    0.7500   -1.2990    0.0000 C   0  0  0  0  0  0  0  0  0  0  0  0
   -0.7500   -1.2990    0.0000 C   0  0  0  0  0  0  0  0  0  0  0  0
   -1.5000    0.0000    0.0000 C   0  0  0  0  0  0  0  0  0  0  0  0
   -0.7500    1.2990    0.0000 C   0  0  0  0  0  0  0  0  0  0  0  0
    0.7500    1.2990    0.0000 C   0  0  0  0  0  0  0  0  0  0  0  0
  1  2  3  0
  2  3  1  0
  3  4  1  0
  4  5  2  0
  5  6  1  0
  6  7  1  0
  7  8  1  0
  8  3  1  0
M  END
>  <Title>  (736) 
idABAJgen14

$$$$

     RDKit          2D

 47 51  0  0  0  0  0  0  0  0999 V2000
  -12.0000  -10.3923    0.0000 C   0  0  0  0  0  0  0  0  0  0  0  0
  -10.5000  -10.3923    0.0000 C   0  0  0  0  0  0  0  0  0  0  0  0
   -9.7500   -9.0933    0.0000 C   0  0  0  0  0  0  0  0  0  0  0  0
   -8.2500   -9.0933    0.0000 C   0  0  0  0  0  0  0  0  0  0  0  0
   -7.5000  -10.3923    0.0000 C   0  0  0  0  0  0  0  0  0  0  0  0
   -7.5000   -7.7942    0.0000 C   0  0  0  0  0  0  0  0  0  0  0  0
   -8.2500   -6.4952    0.0000 C   0  0  0  0  0  0  0  0  0  0  0  0
   -9.7500   -6.4952    0.0000 C   0  0  0  0  0  0  0  0  0  0  0  0
   -7.5000   -5.1962    0.0000 N   0  0  0  0  0  0  0  0  0  0  0  0
   -6.0000   -5.1962    0.0000 C   0  0  0  0  0  0  0  0  0  0  0  0
   -5.2500   -6.4952    0.0000 O   0  0  0  0  0  0  0  0  0  0  0  0
   -5.2500   -3.8971    0.0000 C   0  0  0  0  0  0  0  0  0  0  0  0
   -3.7500   -3.8971    0.0000 C   0  0  0  0  0  0  0  0  0  0  0  0
   -3.0000   -2.5981    0.0000 C   0  0  0  0  0  0  0  0  0  0  0  0
   -1.5000   -2.5981    0.0000 C   0  0  0  0  0  0  0  0  0  0  0  0
   -0.7500   -3.8971    0.0000 C   0  0  0  0  0  0  0  0  0  0  0  0
    0.7500   -3.8971    0.0000 C   0  0  0  0  0  0  0  0  0  0  0  0
    1.5000   -2.5981    0.0000 C   0  0  0  0  0  0  0  0  0  0  0  0
    3.0000   -2.5981    0.0000 C   0  0  0  0  0  0  0  0  0  0  0  0
    3.7500   -1.2990    0.0000 O   0  0  0  0  0  0  0  0  0  0  0  0
    3.7500   -3.8971    0.0000 N   0  0  0  0  0  0  0  0  0  0  0  0
    5.2500   -3.8971    0.0000 C   0  0  0  0  0  0  0  0  0  0  0  0
    6.1317   -2.6836    0.0000 N   0  0  0  0  0  0  0  0  0  0  0  0
    7.5583   -3.1471    0.0000 N   0  0  0  0  0  0  0  0  0  0  0  0
    7.5583   -4.6471    0.0000 N   0  0  0  0  0  0  0  0  0  0  0  0
    6.1317   -5.1106    0.0000 N   0  0  0  0  0  0  0  0  0  0  0  0
    5.6682   -6.5372    0.0000 N   0  0  0  0  0  0  0  0  0  0  0  0
    6.5498   -7.7508    0.0000 C   0  0  0  0  0  0  0  0  0  0  0  0
    5.6682   -8.9643    0.0000 C   0  0  0  0  0  0  0  0  0  0  0  0
    4.2416   -8.5008    0.0000 C   0  0  0  0  0  0  0  0  0  0  0  0
    3.0280   -9.3824    0.0000 C   0  0  0  0  0  0  0  0  0  0  0  0
    3.1848  -10.8742    0.0000 O   0  0  0  0  0  0  0  0  0  0  0  0
    1.6577   -8.7723    0.0000 N   0  0  0  0  0  0  0  0  0  0  0  0
    0.4442   -9.6540    0.0000 C   0  0  0  0  0  0  0  0  0  0  0  0
   -0.9261   -9.0439    0.0000 N   0  0  0  0  0  0  0  0  0  0  0  0
   -2.1396   -9.9256    0.0000 N   0  0  0  0  0  0  0  0  0  0  0  0
   -1.9829  -11.4174    0.0000 N   0  0  0  0  0  0  0  0  0  0  0  0
   -0.6125  -12.0275    0.0000 N   0  0  0  0  0  0  0  0  0  0  0  0
    0.6010  -11.1458    0.0000 N   0  0  0  0  0  0  0  0  0  0  0  0
    4.2416   -7.0008    0.0000 C   0  0  0  0  0  0  0  0  0  0  0  0
    3.0280   -6.1191    0.0000 O   0  0  0  0  0  0  0  0  0  0  0  0
    0.7500   -1.2990    0.0000 C   0  0  0  0  0  0  0  0  0  0  0  0
    1.5000    0.0000    0.0000 C   0  0  0  0  0  0  0  0  0  0  0  0
    0.7500    1.2990    0.0000 C   0  0  0  0  0  0  0  0  0  0  0  0
   -0.7500    1.2990    0.0000 C   0  0  0  0  0  0  0  0  0  0  0  0
   -1.5000    0.0000    0.0000 C   0  0  0  0  0  0  0  0  0  0  0  0
   -0.7500   -1.2990    0.0000 C   0  0  0  0  0  0  0  0  0  0  0  0
  1  2  1  0
  2  3  1  0
  3  4  1  0
  4  5  1  0
  4  6  1  0
  6  7  1  0
  7  8  1  0
  7  9  1  0
  9 10  1  0
 10 11  2  0
 10 12  1  0
 12 13  1  0
 13 14  1  0
 14 15  1  0
 15 16  2  0
 16 17  1  0
 17 18  2  0
 18 19  1  0
 19 20  2  0
 19 21  1  0
 21 22  1  0
 22 23  2  0
 23 24  1  0
 24 25  2  0
 25 26  1  0
 26 27  1  0
 27 28  1  0
 28 29  1  0
 29 30  1  0
 30 31  1  0
 31 32  2  0
 31 33  1  0
 33 34  1  0
 34 35  2  0
 35 36  1  0
 36 37  2  0
 37 38  1  0
 38 39  2  0
 30 40  1  0
 40 41  2  0
 18 42  1  0
 42 43  2  0
 43 44  1  0
 44 45  2  0
 45 46  1  0
 46 47  2  0
 47 15  1  0
 26 22  1  0
 40 27  1  0
 47 42  1  0
 39 34  1  0
M  END
>  <Title>  (737) 
idABAKgen14

$$$$

     RDKit          2D

  6  5  0  0  0  0  0  0  0  0999 V2000
    0.0000    0.0000    0.0000 C   0  0  0  0  0  0  0  0  0  0  0  0
    1.2990    0.7500    0.0000 C   0  0  0  0  0  0  0  0  0  0  0  0
    2.5981   -0.0000    0.0000 N   0  0  0  0  0  0  0  0  0  0  0  0
    3.8971    0.7500    0.0000 C   0  0  0  0  0  0  0  0  0  0  0  0
    5.1962   -0.0000    0.0000 C   0  0  0  0  0  0  0  0  0  0  0  0
    3.8971    2.2500    0.0000 O   0  0  0  0  0  0  0  0  0  0  0  0
  1  2  1  0
  2  3  1  0
  3  4  1  0
  4  5  1  0
  4  6  2  0
M  END
>  <Title>  (738) 
idABALgen14

$$$$

     RDKit          2D

 15 15  0  0  0  0  0  0  0  0999 V2000
    5.2500   -7.2990    0.0000 C   0  0  0  0  0  0  0  0  0  0  0  0
    5.2500   -5.7990    0.0000 C   0  0  0  0  0  0  0  0  0  0  0  0
    5.2500   -4.2990    0.0000 C   0  0  0  0  0  0  0  0  0  0  0  0
    5.2500   -2.7990    0.0000 C   0  0  0  0  0  0  0  0  0  0  0  0
    5.2500   -1.2990    0.0000 C   0  0  0  0  0  0  0  0  0  0  0  0
    5.2500    0.2010    0.0000 C   0  0  0  0  0  0  0  0  0  0  0  0
    6.7500   -1.2990    0.0000 O   0  0  0  0  0  0  0  0  0  0  0  0
    3.7500   -1.2990    0.0000 N   0  0  0  0  0  0  0  0  0  0  0  0
    3.0000    0.0000    0.0000 C   0  0  0  0  0  0  0  0  0  0  0  0
    1.5000    0.0000    0.0000 C   0  0  0  0  0  0  0  0  0  0  0  0
    0.7500   -1.2990    0.0000 C   0  0  0  0  0  0  0  0  0  0  0  0
   -0.7500   -1.2990    0.0000 C   0  0  0  0  0  0  0  0  0  0  0  0
   -1.5000    0.0000    0.0000 C   0  0  0  0  0  0  0  0  0  0  0  0
   -0.7500    1.2990    0.0000 N   0  0  0  0  0  0  0  0  0  0  0  0
    0.7500    1.2990    0.0000 C   0  0  0  0  0  0  0  0  0  0  0  0
  1  2  3  0
  2  3  1  0
  3  4  3  0
  4  5  1  0
  5  6  1  0
  5  7  1  0
  5  8  1  0
  8  9  1  0
  9 10  1  0
 10 11  2  0
 11 12  1  0
 12 13  2  0
 13 14  1  0
 14 15  2  0
 15 10  1  0
M  END
>  <Title>  (739) 
idABAMgen14

$$$$

     RDKit          2D

 28 31  0  0  0  0  0  0  0  0999 V2000
   -3.0000   -2.5981    0.0000 C   0  0  0  0  0  0  0  0  0  0  0  0
   -1.5000   -2.5981    0.0000 C   0  0  0  0  0  0  0  0  0  0  0  0
   -0.7500   -3.8971    0.0000 C   0  0  0  0  0  0  0  0  0  0  0  0
    0.7500   -3.8971    0.0000 C   0  0  0  0  0  0  0  0  0  0  0  0
    1.5000   -2.5981    0.0000 C   0  0  0  0  0  0  0  0  0  0  0  0
    3.0000   -2.5981    0.0000 C   0  0  0  0  0  0  0  0  0  0  0  0
    3.7500   -1.2990    0.0000 O   0  0  0  0  0  0  0  0  0  0  0  0
    3.7500   -3.8971    0.0000 N   0  0  0  0  0  0  0  0  0  0  0  0
    5.2500   -3.8971    0.0000 C   0  0  0  0  0  0  0  0  0  0  0  0
    6.1317   -2.6836    0.0000 N   0  0  0  0  0  0  0  0  0  0  0  0
    7.5583   -3.1471    0.0000 N   0  0  0  0  0  0  0  0  0  0  0  0
    7.5583   -4.6471    0.0000 N   0  0  0  0  0  0  0  0  0  0  0  0
    6.1317   -5.1106    0.0000 N   0  0  0  0  0  0  0  0  0  0  0  0
    5.6682   -6.5372    0.0000 C   0  0  0  0  0  0  0  0  0  0  0  0
    4.2009   -6.8491    0.0000 C   0  0  0  0  0  0  0  0  0  0  0  0
    3.7374   -8.2757    0.0000 C   0  0  0  0  0  0  0  0  0  0  0  0
    4.7411   -9.3904    0.0000 C   0  0  0  0  0  0  0  0  0  0  0  0
    4.2776  -10.8170    0.0000 O   0  0  0  0  0  0  0  0  0  0  0  0
    6.2083   -9.0785    0.0000 C   0  0  0  0  0  0  0  0  0  0  0  0
    6.6718   -7.6519    0.0000 C   0  0  0  0  0  0  0  0  0  0  0  0
    0.7500   -1.2990    0.0000 C   0  0  0  0  0  0  0  0  0  0  0  0
    1.5000    0.0000    0.0000 C   0  0  0  0  0  0  0  0  0  0  0  0
    0.7500    1.2990    0.0000 C   0  0  0  0  0  0  0  0  0  0  0  0
   -0.7500    1.2990    0.0000 C   0  0  0  0  0  0  0  0  0  0  0  0
   -1.5000    2.5981    0.0000 C   0  0  0  0  0  0  0  0  0  0  0  0
   -2.2500    3.8971    0.0000 N   0  0  0  0  0  0  0  0  0  0  0  0
   -1.5000    0.0000    0.0000 C   0  0  0  0  0  0  0  0  0  0  0  0
   -0.7500   -1.2990    0.0000 C   0  0  0  0  0  0  0  0  0  0  0  0
  1  2  1  0
  2  3  1  0
  3  4  1  0
  4  5  1  0
  5  6  1  0
  6  7  2  0
  6  8  1  0
  8  9  1  0
  9 10  2  0
 10 11  1  0
 11 12  2  0
 12 13  1  0
 13 14  1  0
 14 15  2  0
 15 16  1  0
 16 17  2  0
 17 18  1  0
 17 19  1  0
 19 20  2  0
  5 21  1  0
 21 22  2  0
 22 23  1  0
 23 24  2  0
 24 25  1  0
 25 26  3  0
 24 27  1  0
 27 28  2  0
 28  2  1  0
 13  9  1  0
 20 14  1  0
 28 21  1  0
M  END
>  <Title>  (740) 
idABANgen14

$$$$

     RDKit          2D

  9  9  0  0  0  0  0  0  0  0999 V2000
    5.0260   -1.2990    0.0000 C   0  0  0  0  0  0  0  0  0  0  0  0
    3.5260   -1.2990    0.0000 C   0  0  0  0  0  0  0  0  0  0  0  0
    2.7760   -2.5981    0.0000 O   0  0  0  0  0  0  0  0  0  0  0  0
    2.7760    0.0000    0.0000 N   0  0  0  0  0  0  0  0  0  0  0  0
    1.2760    0.0000    0.0000 C   0  0  0  0  0  0  0  0  0  0  0  0
    0.3943    1.2135    0.0000 C   0  0  0  0  0  0  0  0  0  0  0  0
   -1.0323    0.7500    0.0000 S   0  0  0  0  0  0  0  0  0  0  0  0
   -1.0323   -0.7500    0.0000 C   0  0  0  0  0  0  0  0  0  0  0  0
    0.3943   -1.2135    0.0000 N   0  0  0  0  0  0  0  0  0  0  0  0
  1  2  1  0
  2  3  2  0
  2  4  1  0
  4  5  1  0
  5  6  2  0
  6  7  1  0
  7  8  1  0
  8  9  2  0
  9  5  1  0
M  END
>  <Title>  (741) 
idABAOgen14

$$$$

     RDKit          2D

 12 11  0  0  0  0  0  0  0  0999 V2000
    0.0000    0.0000    0.0000 C   0  0  0  0  0  0  0  0  0  0  0  0
    1.2990    0.7500    0.0000 C   0  0  0  0  0  0  0  0  0  0  0  0
    2.5981   -0.0000    0.0000 C   0  0  0  0  0  0  0  0  0  0  0  0
    3.8971    0.7500    0.0000 C   0  0  0  0  0  0  0  0  0  0  0  0
    3.8971    2.2500    0.0000 O   0  0  0  0  0  0  0  0  0  0  0  0
    5.1962   -0.0000    0.0000 N   0  0  0  0  0  0  0  0  0  0  0  0
    6.4952    0.7500    0.0000 C   0  0  0  0  0  0  0  0  0  0  0  0
    7.7942   -0.0000    0.0000 C   0  0  0  0  0  0  0  0  0  0  0  0
    9.0933    0.7500    0.0000 C   0  0  0  0  0  0  0  0  0  0  0  0
    7.7942   -1.5000    0.0000 C   0  0  0  0  0  0  0  0  0  0  0  0
    9.0933   -2.2500    0.0000 C   0  0  0  0  0  0  0  0  0  0  0  0
    9.0933   -3.7500    0.0000 C   0  0  0  0  0  0  0  0  0  0  0  0
  1  2  1  0
  2  3  1  0
  3  4  1  0
  4  5  2  0
  4  6  1  0
  6  7  1  0
  7  8  1  0
  8  9  1  0
  8 10  1  0
 10 11  1  0
 11 12  1  0
M  END
>  <Title>  (742) 
idABAPgen14

$$$$

     RDKit          2D

 99100  0  0  0  0  0  0  0  0999 V2000
   -2.1664   -1.0837    0.0000 C   0  0  0  0  0  0  0  0  0  0  0  0
   -2.4864    0.3818    0.0000 C   0  0  0  0  0  0  0  0  0  0  0  0
   -3.9616    0.1105    0.0000 C   0  0  0  0  0  0  0  0  0  0  0  0
   -5.4516   -0.0628    0.0000 C   0  0  0  0  0  0  0  0  0  0  0  0
   -6.9498   -0.1372    0.0000 C   0  0  0  0  0  0  0  0  0  0  0  0
   -8.4496   -0.1124    0.0000 C   0  0  0  0  0  0  0  0  0  0  0  0
   -9.9444    0.0115    0.0000 C   0  0  0  0  0  0  0  0  0  0  0  0
  -11.4279    0.2339    0.0000 C   0  0  0  0  0  0  0  0  0  0  0  0
  -12.8933    0.5539    0.0000 C   0  0  0  0  0  0  0  0  0  0  0  0
  -14.3345    0.9700    0.0000 C   0  0  0  0  0  0  0  0  0  0  0  0
  -15.7449    1.4804    0.0000 C   0  0  0  0  0  0  0  0  0  0  0  0
  -17.1186    2.0830    0.0000 C   0  0  0  0  0  0  0  0  0  0  0  0
  -18.4494    2.7750    0.0000 C   0  0  0  0  0  0  0  0  0  0  0  0
  -19.7316    3.5534    0.0000 C   0  0  0  0  0  0  0  0  0  0  0  0
  -20.9596    4.4149    0.0000 C   0  0  0  0  0  0  0  0  0  0  0  0
  -22.1279    5.3557    0.0000 C   0  0  0  0  0  0  0  0  0  0  0  0
  -23.2315    6.3716    0.0000 C   0  0  0  0  0  0  0  0  0  0  0  0
  -24.2655    7.4582    0.0000 C   0  0  0  0  0  0  0  0  0  0  0  0
  -25.2255    8.6108    0.0000 C   0  0  0  0  0  0  0  0  0  0  0  0
  -26.1071    9.8244    0.0000 C   0  0  0  0  0  0  0  0  0  0  0  0
  -26.9067   11.0935    0.0000 C   0  0  0  0  0  0  0  0  0  0  0  0
  -27.6206   12.4127    0.0000 C   0  0  0  0  0  0  0  0  0  0  0  0
  -28.2458   13.7762    0.0000 C   0  0  0  0  0  0  0  0  0  0  0  0
  -28.7795   15.1781    0.0000 C   0  0  0  0  0  0  0  0  0  0  0  0
  -29.2193   16.6121    0.0000 C   0  0  0  0  0  0  0  0  0  0  0  0
  -29.5635   18.0721    0.0000 C   0  0  0  0  0  0  0  0  0  0  0  0
  -29.8104   19.5517    0.0000 C   0  0  0  0  0  0  0  0  0  0  0  0
  -29.9589   21.0443    0.0000 C   0  0  0  0  0  0  0  0  0  0  0  0
  -30.0085   22.5435    0.0000 C   0  0  0  0  0  0  0  0  0  0  0  0
  -29.9589   24.0426    0.0000 C   0  0  0  0  0  0  0  0  0  0  0  0
  -29.8104   25.5353    0.0000 C   0  0  0  0  0  0  0  0  0  0  0  0
  -29.5635   27.0148    0.0000 C   0  0  0  0  0  0  0  0  0  0  0  0
  -29.2193   28.4748    0.0000 C   0  0  0  0  0  0  0  0  0  0  0  0
  -28.7795   29.9089    0.0000 C   0  0  0  0  0  0  0  0  0  0  0  0
  -28.2458   31.3107    0.0000 C   0  0  0  0  0  0  0  0  0  0  0  0
  -27.6206   32.6742    0.0000 C   0  0  0  0  0  0  0  0  0  0  0  0
  -26.9067   33.9934    0.0000 C   0  0  0  0  0  0  0  0  0  0  0  0
  -26.1071   35.2626    0.0000 C   0  0  0  0  0  0  0  0  0  0  0  0
  -25.2255   36.4761    0.0000 C   0  0  0  0  0  0  0  0  0  0  0  0
  -24.2655   37.6287    0.0000 C   0  0  0  0  0  0  0  0  0  0  0  0
  -23.2315   38.7153    0.0000 C   0  0  0  0  0  0  0  0  0  0  0  0
  -22.1279   39.7312    0.0000 C   0  0  0  0  0  0  0  0  0  0  0  0
  -20.9596   40.6720    0.0000 C   0  0  0  0  0  0  0  0  0  0  0  0
  -19.7316   41.5335    0.0000 C   0  0  0  0  0  0  0  0  0  0  0  0
  -18.4494   42.3120    0.0000 C   0  0  0  0  0  0  0  0  0  0  0  0
  -17.1186   43.0040    0.0000 C   0  0  0  0  0  0  0  0  0  0  0  0
  -15.7449   43.6065    0.0000 C   0  0  0  0  0  0  0  0  0  0  0  0
  -14.3345   44.1170    0.0000 C   0  0  0  0  0  0  0  0  0  0  0  0
  -12.8933   44.5331    0.0000 C   0  0  0  0  0  0  0  0  0  0  0  0
  -11.4279   44.8530    0.0000 C   0  0  0  0  0  0  0  0  0  0  0  0
   -9.9444   45.0754    0.0000 C   0  0  0  0  0  0  0  0  0  0  0  0
   -8.4496   45.1993    0.0000 C   0  0  0  0  0  0  0  0  0  0  0  0
   -6.9498   45.2241    0.0000 C   0  0  0  0  0  0  0  0  0  0  0  0
   -5.4516   45.1497    0.0000 C   0  0  0  0  0  0  0  0  0  0  0  0
   -3.9616   44.9765    0.0000 C   0  0  0  0  0  0  0  0  0  0  0  0
   -2.4864   44.7052    0.0000 C   0  0  0  0  0  0  0  0  0  0  0  0
   -1.0323   44.3369    0.0000 C   0  0  0  0  0  0  0  0  0  0  0  0
    0.3943   43.8734    0.0000 C   0  0  0  0  0  0  0  0  0  0  0  0
    1.7871   43.3166    0.0000 C   0  0  0  0  0  0  0  0  0  0  0  0
    3.1401   42.6690    0.0000 C   0  0  0  0  0  0  0  0  0  0  0  0
    4.4473   41.9333    0.0000 C   0  0  0  0  0  0  0  0  0  0  0  0
    5.7031   41.1129    0.0000 C   0  0  0  0  0  0  0  0  0  0  0  0
    6.9019   40.2113    0.0000 C   0  0  0  0  0  0  0  0  0  0  0  0
    8.0384   39.2324    0.0000 C   0  0  0  0  0  0  0  0  0  0  0  0
    9.1078   38.1806    0.0000 C   0  0  0  0  0  0  0  0  0  0  0  0
   10.1054   37.0603    0.0000 C   0  0  0  0  0  0  0  0  0  0  0  0
   11.0267   35.8766    0.0000 C   0  0  0  0  0  0  0  0  0  0  0  0
   11.8678   34.6346    0.0000 C   0  0  0  0  0  0  0  0  0  0  0  0
   12.6249   33.3397    0.0000 C   0  0  0  0  0  0  0  0  0  0  0  0
   13.2948   31.9976    0.0000 C   0  0  0  0  0  0  0  0  0  0  0  0
   13.8746   30.6142    0.0000 C   0  0  0  0  0  0  0  0  0  0  0  0
   14.3616   29.1955    0.0000 C   0  0  0  0  0  0  0  0  0  0  0  0
   14.7538   27.7476    0.0000 C   0  0  0  0  0  0  0  0  0  0  0  0
   15.0495   26.2771    0.0000 C   0  0  0  0  0  0  0  0  0  0  0  0
   15.2474   24.7902    0.0000 C   0  0  0  0  0  0  0  0  0  0  0  0
   15.3465   23.2935    0.0000 C   0  0  0  0  0  0  0  0  0  0  0  0
   15.3465   21.7935    0.0000 C   0  0  0  0  0  0  0  0  0  0  0  0
   15.2474   20.2967    0.0000 C   0  0  0  0  0  0  0  0  0  0  0  0
   15.0495   18.8098    0.0000 C   0  0  0  0  0  0  0  0  0  0  0  0
   14.7538   17.3393    0.0000 C   0  0  0  0  0  0  0  0  0  0  0  0
   14.3616   15.8915    0.0000 C   0  0  0  0  0  0  0  0  0  0  0  0
   13.8746   14.4727    0.0000 C   0  0  0  0  0  0  0  0  0  0  0  0
   13.2948   13.0893    0.0000 C   0  0  0  0  0  0  0  0  0  0  0  0
   12.6249   11.7472    0.0000 C   0  0  0  0  0  0  0  0  0  0  0  0
   11.8678   10.4523    0.0000 C   0  0  0  0  0  0  0  0  0  0  0  0
   11.0267    9.2103    0.0000 C   0  0  0  0  0  0  0  0  0  0  0  0
   10.1054    8.0266    0.0000 C   0  0  0  0  0  0  0  0  0  0  0  0
    9.1078    6.9064    0.0000 C   0  0  0  0  0  0  0  0  0  0  0  0
    8.0384    5.8545    0.0000 C   0  0  0  0  0  0  0  0  0  0  0  0
    6.9019    4.8756    0.0000 C   0  0  0  0  0  0  0  0  0  0  0  0
    5.7031    3.9740    0.0000 C   0  0  0  0  0  0  0  0  0  0  0  0
    4.4473    3.1536    0.0000 C   0  0  0  0  0  0  0  0  0  0  0  0
    3.1401    2.4180    0.0000 C   0  0  0  0  0  0  0  0  0  0  0  0
    1.7871    1.7703    0.0000 C   0  0  0  0  0  0  0  0  0  0  0  0
    0.3943    1.2135    0.0000 C   0  0  0  0  0  0  0  0  0  0  0  0
    1.2760    0.0000    0.0000 C   0  0  0  0  0  0  0  0  0  0  0  0
    0.3943   -1.2135    0.0000 C   0  0  0  0  0  0  0  0  0  0  0  0
   -1.0323   -0.7500    0.0000 C   0  0  0  0  0  0  0  0  0  0  0  0
   -1.0323    0.7500    0.0000 C   0  0  0  0  0  0  0  0  0  0  0  0
  1  2  1  0
  2  3  1  0
  3  4  1  0
  4  5  1  0
  5  6  1  0
  6  7  1  0
  7  8  1  0
  8  9  1  0
  9 10  1  0
 10 11  1  0
 11 12  1  0
 12 13  1  0
 13 14  1  0
 14 15  1  0
 15 16  1  0
 16 17  1  0
 17 18  1  0
 18 19  1  0
 19 20  1  0
 20 21  1  0
 21 22  1  0
 22 23  1  0
 23 24  1  0
 24 25  1  0
 25 26  1  0
 26 27  1  0
 27 28  1  0
 28 29  1  0
 29 30  1  0
 30 31  1  0
 31 32  1  0
 32 33  1  0
 33 34  1  0
 34 35  1  0
 35 36  1  0
 36 37  1  0
 37 38  1  0
 38 39  1  0
 39 40  1  0
 40 41  1  0
 41 42  1  0
 42 43  1  0
 43 44  1  0
 44 45  1  0
 45 46  1  0
 46 47  1  0
 47 48  1  0
 48 49  1  0
 49 50  1  0
 50 51  1  0
 51 52  1  0
 52 53  1  0
 53 54  1  0
 54 55  1  0
 55 56  1  0
 56 57  1  0
 57 58  1  0
 58 59  1  0
 59 60  1  0
 60 61  1  0
 61 62  1  0
 62 63  1  0
 63 64  1  0
 64 65  1  0
 65 66  1  0
 66 67  1  0
 67 68  1  0
 68 69  1  0
 69 70  1  0
 70 71  1  0
 71 72  1  0
 72 73  1  0
 73 74  1  0
 74 75  1  0
 75 76  1  0
 76 77  1  0
 77 78  1  0
 78 79  1  0
 79 80  1  0
 80 81  2  0
 81 82  1  0
 82 83  2  0
 83 84  1  0
 84 85  2  0
 85 86  1  0
 86 87  2  0
 87 88  1  0
 88 89  2  0
 89 90  1  0
 90 91  2  0
 91 92  1  0
 92 93  2  0
 93 94  1  0
 94 95  2  0
 95 96  1  0
 96 97  2  0
 97 98  1  0
 98 99  2  0
 99  2  1  0
 99 95  1  0
M  END
>  <Title>  (743) 
idABAQgen14

$$$$

     RDKit          2D

 14 15  0  0  0  0  0  0  0  0999 V2000
   -2.8112   -6.5020    0.0000 C   0  0  0  0  0  0  0  0  0  0  0  0
   -1.3240   -6.3062    0.0000 C   0  0  0  0  0  0  0  0  0  0  0  0
   -0.7500   -4.9204    0.0000 C   0  0  0  0  0  0  0  0  0  0  0  0
    0.7500   -4.9204    0.0000 C   0  0  0  0  0  0  0  0  0  0  0  0
    1.8107   -3.8597    0.0000 C   0  0  0  0  0  0  0  0  0  0  0  0
    1.8107   -2.3597    0.0000 C   0  0  0  0  0  0  0  0  0  0  0  0
    0.7500   -1.2990    0.0000 C   0  0  0  0  0  0  0  0  0  0  0  0
    1.5000    0.0000    0.0000 N   0  0  0  0  0  0  0  0  0  0  0  0
    0.7500    1.2990    0.0000 C   0  0  0  0  0  0  0  0  0  0  0  0
   -0.7500    1.2990    0.0000 C   0  0  0  0  0  0  0  0  0  0  0  0
   -1.5000    0.0000    0.0000 C   0  0  0  0  0  0  0  0  0  0  0  0
   -0.7500   -1.2990    0.0000 C   0  0  0  0  0  0  0  0  0  0  0  0
   -1.8107   -2.3597    0.0000 C   0  0  0  0  0  0  0  0  0  0  0  0
   -1.8107   -3.8597    0.0000 C   0  0  0  0  0  0  0  0  0  0  0  0
  1  2  2  0
  2  3  1  0
  3  4  1  0
  4  5  1  0
  5  6  1  0
  6  7  1  0
  7  8  2  0
  8  9  1  0
  9 10  2  0
 10 11  1  0
 11 12  2  0
 12 13  1  0
 13 14  1  0
 14  3  1  0
 12  7  1  0
M  END
>  <Title>  (744) 
idABARgen14

$$$$

     RDKit          2D

 10 10  0  0  0  0  0  0  0  0999 V2000
    5.2500   -1.2990    0.0000 C   0  0  0  0  0  0  0  0  0  0  0  0
    3.7500   -1.2990    0.0000 C   0  0  0  0  0  0  0  0  0  0  0  0
    3.0000   -2.5981    0.0000 O   0  0  0  0  0  0  0  0  0  0  0  0
    3.0000    0.0000    0.0000 N   0  0  0  0  0  0  0  0  0  0  0  0
    1.5000    0.0000    0.0000 C   0  0  0  0  0  0  0  0  0  0  0  0
    0.7500   -1.2990    0.0000 N   0  0  0  0  0  0  0  0  0  0  0  0
   -0.7500   -1.2990    0.0000 O   0  0  0  0  0  0  0  0  0  0  0  0
   -1.5000    0.0000    0.0000 C   0  0  0  0  0  0  0  0  0  0  0  0
   -0.7500    1.2990    0.0000 C   0  0  0  0  0  0  0  0  0  0  0  0
    0.7500    1.2990    0.0000 N   0  0  0  0  0  0  0  0  0  0  0  0
  1  2  1  0
  2  3  2  0
  2  4  1  0
  4  5  1  0
  5  6  2  0
  6  7  1  0
  7  8  1  0
  8  9  2  0
  9 10  1  0
 10  5  1  0
M  END
>  <Title>  (745) 
idABASgen14

$$$$

     RDKit          2D

  6  5  0  0  0  0  0  0  0  0999 V2000
    0.0000    0.0000    0.0000 C   0  0  0  0  0  0  0  0  0  0  0  0
    1.2990    0.7500    0.0000 C   0  0  0  0  0  0  0  0  0  0  0  0
    2.5981   -0.0000    0.0000 C   0  0  0  0  0  0  0  0  0  0  0  0
    3.8971    0.7500    0.0000 C   0  0  0  0  0  0  0  0  0  0  0  0
    5.1962   -0.0000    0.0000 C   0  0  0  0  0  0  0  0  0  0  0  0
    3.8971    2.2500    0.0000 N   0  0  0  0  0  0  0  0  0  0  0  0
  1  2  1  0
  2  3  1  0
  3  4  1  0
  4  5  1  0
  4  6  1  0
M  END
>  <Title>  (746) 
idABATgen14

$$$$

     RDKit          2D

 97 98  0  0  0  0  0  0  0  0999 V2000
   -1.6431   -2.4385    0.0000 C   0  0  0  0  0  0  0  0  0  0  0  0
   -0.3975   -3.2743    0.0000 C   0  0  0  0  0  0  0  0  0  0  0  0
   -1.4732   -4.3197    0.0000 C   0  0  0  0  0  0  0  0  0  0  0  0
   -2.4716   -5.4392    0.0000 C   0  0  0  0  0  0  0  0  0  0  0  0
   -3.3876   -6.6270    0.0000 C   0  0  0  0  0  0  0  0  0  0  0  0
   -4.2165   -7.8772    0.0000 C   0  0  0  0  0  0  0  0  0  0  0  0
   -4.9541   -9.1833    0.0000 C   0  0  0  0  0  0  0  0  0  0  0  0
   -5.5966  -10.5387    0.0000 C   0  0  0  0  0  0  0  0  0  0  0  0
   -6.1408  -11.9365    0.0000 C   0  0  0  0  0  0  0  0  0  0  0  0
   -6.5839  -13.3696    0.0000 C   0  0  0  0  0  0  0  0  0  0  0  0
   -6.9237  -14.8306    0.0000 C   0  0  0  0  0  0  0  0  0  0  0  0
   -7.1583  -16.3121    0.0000 C   0  0  0  0  0  0  0  0  0  0  0  0
   -7.2867  -17.8066    0.0000 C   0  0  0  0  0  0  0  0  0  0  0  0
   -7.3081  -19.3065    0.0000 C   0  0  0  0  0  0  0  0  0  0  0  0
   -7.2225  -20.8040    0.0000 C   0  0  0  0  0  0  0  0  0  0  0  0
   -7.0302  -22.2916    0.0000 C   0  0  0  0  0  0  0  0  0  0  0  0
   -6.7324  -23.7618    0.0000 C   0  0  0  0  0  0  0  0  0  0  0  0
   -6.3303  -25.2069    0.0000 C   0  0  0  0  0  0  0  0  0  0  0  0
   -5.8263  -26.6197    0.0000 C   0  0  0  0  0  0  0  0  0  0  0  0
   -5.2227  -27.9929    0.0000 C   0  0  0  0  0  0  0  0  0  0  0  0
   -4.5227  -29.3195    0.0000 C   0  0  0  0  0  0  0  0  0  0  0  0
   -3.7298  -30.5928    0.0000 C   0  0  0  0  0  0  0  0  0  0  0  0
   -2.8482  -31.8064    0.0000 C   0  0  0  0  0  0  0  0  0  0  0  0
   -1.8822  -32.9539    0.0000 C   0  0  0  0  0  0  0  0  0  0  0  0
   -0.8368  -34.0296    0.0000 C   0  0  0  0  0  0  0  0  0  0  0  0
    0.2827  -35.0280    0.0000 C   0  0  0  0  0  0  0  0  0  0  0  0
    1.4706  -35.9440    0.0000 C   0  0  0  0  0  0  0  0  0  0  0  0
    2.7208  -36.7729    0.0000 C   0  0  0  0  0  0  0  0  0  0  0  0
    4.0269  -37.5105    0.0000 C   0  0  0  0  0  0  0  0  0  0  0  0
    5.3823  -38.1530    0.0000 C   0  0  0  0  0  0  0  0  0  0  0  0
    6.7801  -38.6972    0.0000 C   0  0  0  0  0  0  0  0  0  0  0  0
    8.2131  -39.1403    0.0000 C   0  0  0  0  0  0  0  0  0  0  0  0
    9.6742  -39.4801    0.0000 C   0  0  0  0  0  0  0  0  0  0  0  0
   11.1557  -39.7147    0.0000 C   0  0  0  0  0  0  0  0  0  0  0  0
   12.6502  -39.8431    0.0000 C   0  0  0  0  0  0  0  0  0  0  0  0
   14.1500  -39.8645    0.0000 C   0  0  0  0  0  0  0  0  0  0  0  0
   15.6476  -39.7789    0.0000 C   0  0  0  0  0  0  0  0  0  0  0  0
   17.1352  -39.5866    0.0000 C   0  0  0  0  0  0  0  0  0  0  0  0
   18.6053  -39.2887    0.0000 C   0  0  0  0  0  0  0  0  0  0  0  0
   20.0505  -38.8867    0.0000 C   0  0  0  0  0  0  0  0  0  0  0  0
   21.4632  -38.3826    0.0000 C   0  0  0  0  0  0  0  0  0  0  0  0
   22.8364  -37.7791    0.0000 C   0  0  0  0  0  0  0  0  0  0  0  0
   24.1631  -37.0791    0.0000 C   0  0  0  0  0  0  0  0  0  0  0  0
   25.4364  -36.2862    0.0000 C   0  0  0  0  0  0  0  0  0  0  0  0
   26.6499  -35.4045    0.0000 C   0  0  0  0  0  0  0  0  0  0  0  0
   27.7975  -34.4385    0.0000 C   0  0  0  0  0  0  0  0  0  0  0  0
   28.8732  -33.3931    0.0000 C   0  0  0  0  0  0  0  0  0  0  0  0
   29.8716  -32.2736    0.0000 C   0  0  0  0  0  0  0  0  0  0  0  0
   30.7875  -31.0858    0.0000 C   0  0  0  0  0  0  0  0  0  0  0  0
   31.6164  -29.8356    0.0000 C   0  0  0  0  0  0  0  0  0  0  0  0
   32.3540  -28.5295    0.0000 C   0  0  0  0  0  0  0  0  0  0  0  0
   32.9966  -27.1741    0.0000 C   0  0  0  0  0  0  0  0  0  0  0  0
   33.5408  -25.7763    0.0000 C   0  0  0  0  0  0  0  0  0  0  0  0
   33.9839  -24.3432    0.0000 C   0  0  0  0  0  0  0  0  0  0  0  0
   34.3236  -22.8822    0.0000 C   0  0  0  0  0  0  0  0  0  0  0  0
   34.5583  -21.4007    0.0000 C   0  0  0  0  0  0  0  0  0  0  0  0
   34.6867  -19.9062    0.0000 C   0  0  0  0  0  0  0  0  0  0  0  0
   34.7081  -18.4063    0.0000 C   0  0  0  0  0  0  0  0  0  0  0  0
   34.6224  -16.9088    0.0000 C   0  0  0  0  0  0  0  0  0  0  0  0
   34.4302  -15.4212    0.0000 C   0  0  0  0  0  0  0  0  0  0  0  0
   34.1323  -13.9510    0.0000 C   0  0  0  0  0  0  0  0  0  0  0  0
   33.7303  -12.5059    0.0000 C   0  0  0  0  0  0  0  0  0  0  0  0
   33.2262  -11.0931    0.0000 C   0  0  0  0  0  0  0  0  0  0  0  0
   32.6226   -9.7199    0.0000 C   0  0  0  0  0  0  0  0  0  0  0  0
   31.9226   -8.3933    0.0000 C   0  0  0  0  0  0  0  0  0  0  0  0
   31.1298   -7.1199    0.0000 C   0  0  0  0  0  0  0  0  0  0  0  0
   30.2481   -5.9064    0.0000 C   0  0  0  0  0  0  0  0  0  0  0  0
   29.2821   -4.7589    0.0000 C   0  0  0  0  0  0  0  0  0  0  0  0
   28.2367   -3.6832    0.0000 C   0  0  0  0  0  0  0  0  0  0  0  0
   27.1172   -2.6848    0.0000 C   0  0  0  0  0  0  0  0  0  0  0  0
   25.9294   -1.7688    0.0000 C   0  0  0  0  0  0  0  0  0  0  0  0
   24.6792   -0.9399    0.0000 C   0  0  0  0  0  0  0  0  0  0  0  0
   23.3731   -0.2023    0.0000 C   0  0  0  0  0  0  0  0  0  0  0  0
   22.0177    0.4402    0.0000 C   0  0  0  0  0  0  0  0  0  0  0  0
   20.6199    0.9844    0.0000 C   0  0  0  0  0  0  0  0  0  0  0  0
   19.1868    1.4275    0.0000 C   0  0  0  0  0  0  0  0  0  0  0  0
   17.7258    1.7673    0.0000 C   0  0  0  0  0  0  0  0  0  0  0  0
   16.2443    2.0019    0.0000 C   0  0  0  0  0  0  0  0  0  0  0  0
   14.7498    2.1303    0.0000 C   0  0  0  0  0  0  0  0  0  0  0  0
   13.2499    2.1517    0.0000 C   0  0  0  0  0  0  0  0  0  0  0  0
   11.7524    2.0661    0.0000 C   0  0  0  0  0  0  0  0  0  0  0  0
   10.2647    1.8738    0.0000 C   0  0  0  0  0  0  0  0  0  0  0  0
    8.7946    1.5759    0.0000 C   0  0  0  0  0  0  0  0  0  0  0  0
    7.3495    1.1739    0.0000 C   0  0  0  0  0  0  0  0  0  0  0  0
    5.9367    0.6699    0.0000 C   0  0  0  0  0  0  0  0  0  0  0  0
    4.5635    0.0663    0.0000 C   0  0  0  0  0  0  0  0  0  0  0  0
    3.2369   -0.6337    0.0000 C   0  0  0  0  0  0  0  0  0  0  0  0
    1.9635   -1.4266    0.0000 C   0  0  0  0  0  0  0  0  0  0  0  0
    2.4271    0.0000    0.0000 C   0  0  0  0  0  0  0  0  0  0  0  0
    1.9635    1.4266    0.0000 C   0  0  0  0  0  0  0  0  0  0  0  0
    0.7500    2.3083    0.0000 C   0  0  0  0  0  0  0  0  0  0  0  0
   -0.7500    2.3083    0.0000 C   0  0  0  0  0  0  0  0  0  0  0  0
   -1.9635    1.4266    0.0000 C   0  0  0  0  0  0  0  0  0  0  0  0
   -2.4271    0.0000    0.0000 C   0  0  0  0  0  0  0  0  0  0  0  0
   -1.9635   -1.4266    0.0000 C   0  0  0  0  0  0  0  0  0  0  0  0
   -0.7500   -2.3083    0.0000 C   0  0  0  0  0  0  0  0  0  0  0  0
    0.7500   -2.3083    0.0000 C   0  0  0  0  0  0  0  0  0  0  0  0
  1  2  1  0
  2  3  1  0
  3  4  1  0
  4  5  1  0
  5  6  1  0
  6  7  1  0
  7  8  1  0
  8  9  1  0
  9 10  1  0
 10 11  1  0
 11 12  1  0
 12 13  1  0
 13 14  1  0
 14 15  1  0
 15 16  1  0
 16 17  1  0
 17 18  1  0
 18 19  1  0
 19 20  1  0
 20 21  1  0
 21 22  1  0
 22 23  1  0
 23 24  1  0
 24 25  1  0
 25 26  1  0
 26 27  1  0
 27 28  1  0
 28 29  1  0
 29 30  1  0
 30 31  1  0
 31 32  1  0
 32 33  1  0
 33 34  1  0
 34 35  1  0
 35 36  1  0
 36 37  1  0
 37 38  1  0
 38 39  1  0
 39 40  1  0
 40 41  1  0
 41 42  1  0
 42 43  1  0
 43 44  1  0
 44 45  1  0
 45 46  1  0
 46 47  1  0
 47 48  1  0
 48 49  1  0
 49 50  1  0
 50 51  1  0
 51 52  1  0
 52 53  1  0
 53 54  1  0
 54 55  1  0
 55 56  1  0
 56 57  1  0
 57 58  1  0
 58 59  1  0
 59 60  1  0
 60 61  1  0
 61 62  1  0
 62 63  1  0
 63 64  1  0
 64 65  1  0
 65 66  1  0
 66 67  1  0
 67 68  1  0
 68 69  1  0
 69 70  1  0
 70 71  1  0
 71 72  1  0
 72 73  1  0
 73 74  1  0
 74 75  1  0
 75 76  1  0
 76 77  1  0
 77 78  1  0
 78 79  1  0
 79 80  1  0
 80 81  1  0
 81 82  1  0
 82 83  1  0
 83 84  1  0
 84 85  1  0
 85 86  1  0
 86 87  1  0
 87 88  1  0
 88 89  1  0
 89 90  1  0
 90 91  1  0
 91 92  1  0
 92 93  2  0
 93 94  1  0
 94 95  2  0
 95 96  1  0
 96 97  2  0
 97  2  1  0
 97 88  1  0
M  END
>  <Title>  (747) 
idABAUgen14

$$$$

     RDKit          2D

 10  9  0  0  0  0  0  0  0  0999 V2000
    0.0000    0.0000    0.0000 C   0  0  0  0  0  0  0  0  0  0  0  0
    1.2990    0.7500    0.0000 C   0  0  0  0  0  0  0  0  0  0  0  0
    2.5981   -0.0000    0.0000 C   0  0  0  0  0  0  0  0  0  0  0  0
    3.8971    0.7500    0.0000 C   0  0  0  0  0  0  0  0  0  0  0  0
    3.8971    2.2500    0.0000 O   0  0  0  0  0  0  0  0  0  0  0  0
    5.1962   -0.0000    0.0000 N   0  0  0  0  0  0  0  0  0  0  0  0
    6.4952    0.7500    0.0000 C   0  0  0  0  0  0  0  0  0  0  0  0
    6.4952    2.2500    0.0000 N   0  0  0  0  0  0  0  0  0  0  0  0
    7.7942   -0.0000    0.0000 C   0  0  0  0  0  0  0  0  0  0  0  0
    9.0933    0.7500    0.0000 C   0  0  0  0  0  0  0  0  0  0  0  0
  1  2  1  0
  2  3  1  0
  3  4  1  0
  4  5  2  0
  4  6  1  0
  6  7  1  0
  7  8  2  0
  7  9  1  0
  9 10  1  0
M  END
>  <Title>  (748) 
idABAVgen14

$$$$

     RDKit          2D

  6  5  0  0  0  0  0  0  0  0999 V2000
    0.0000    0.0000    0.0000 C   0  0  0  0  0  0  0  0  0  0  0  0
    1.2990    0.7500    0.0000 C   0  0  0  0  0  0  0  0  0  0  0  0
    2.5981   -0.0000    0.0000 C   0  0  0  0  0  0  0  0  0  0  0  0
    1.2990    2.2500    0.0000 C   0  0  0  0  0  0  0  0  0  0  0  0
    2.5981    3.0000    0.0000 C   0  0  0  0  0  0  0  0  0  0  0  0
    2.5981    4.5000    0.0000 O   0  0  0  0  0  0  0  0  0  0  0  0
  1  2  1  0
  2  3  1  0
  2  4  1  0
  4  5  1  0
  5  6  2  0
M  END
>  <Title>  (749) 
idABAWgen14

$$$$

     RDKit          2D

 35 39  0  0  0  0  0  0  0  0999 V2000
    8.2500    3.8971    0.0000 C   0  0  0  0  0  0  0  0  0  0  0  0
    7.5000    2.5981    0.0000 C   0  0  0  0  0  0  0  0  0  0  0  0
    8.2500    1.2990    0.0000 C   0  0  0  0  0  0  0  0  0  0  0  0
    7.5000    0.0000    0.0000 C   0  0  0  0  0  0  0  0  0  0  0  0
    6.0000    0.0000    0.0000 C   0  0  0  0  0  0  0  0  0  0  0  0
    5.2500   -1.2990    0.0000 O   0  0  0  0  0  0  0  0  0  0  0  0
    6.0000   -2.5981    0.0000 C   0  0  0  0  0  0  0  0  0  0  0  0
    7.5000   -2.5981    0.0000 O   0  0  0  0  0  0  0  0  0  0  0  0
    5.2500   -3.8971    0.0000 N   0  0  0  0  0  0  0  0  0  0  0  0
    6.0000   -5.1962    0.0000 C   0  0  0  0  0  0  0  0  0  0  0  0
    7.4918   -5.3529    0.0000 N   0  0  0  0  0  0  0  0  0  0  0  0
    7.8037   -6.8202    0.0000 N   0  0  0  0  0  0  0  0  0  0  0  0
    6.5046   -7.5702    0.0000 N   0  0  0  0  0  0  0  0  0  0  0  0
    5.3899   -6.5665    0.0000 N   0  0  0  0  0  0  0  0  0  0  0  0
    3.9227   -6.8783    0.0000 N   0  0  0  0  0  0  0  0  0  0  0  0
    2.8080   -5.8746    0.0000 C   0  0  0  0  0  0  0  0  0  0  0  0
    1.5089   -6.6246    0.0000 C   0  0  0  0  0  0  0  0  0  0  0  0
    1.8208   -8.0919    0.0000 N   0  0  0  0  0  0  0  0  0  0  0  0
    0.8171   -9.2066    0.0000 C   0  0  0  0  0  0  0  0  0  0  0  0
    1.2806  -10.6332    0.0000 O   0  0  0  0  0  0  0  0  0  0  0  0
   -0.6501   -8.8947    0.0000 N   0  0  0  0  0  0  0  0  0  0  0  0
   -1.6538  -10.0094    0.0000 C   0  0  0  0  0  0  0  0  0  0  0  0
   -1.1903  -11.4360    0.0000 N   0  0  0  0  0  0  0  0  0  0  0  0
   -2.1940  -12.5507    0.0000 N   0  0  0  0  0  0  0  0  0  0  0  0
   -3.6612  -12.2389    0.0000 N   0  0  0  0  0  0  0  0  0  0  0  0
   -4.1247  -10.8123    0.0000 N   0  0  0  0  0  0  0  0  0  0  0  0
   -3.1210   -9.6976    0.0000 N   0  0  0  0  0  0  0  0  0  0  0  0
    3.3126   -8.2487    0.0000 C   0  0  0  0  0  0  0  0  0  0  0  0
    4.0626   -9.5477    0.0000 O   0  0  0  0  0  0  0  0  0  0  0  0
    5.2500    1.2990    0.0000 C   0  0  0  0  0  0  0  0  0  0  0  0
    3.7500    1.2990    0.0000 C   0  0  0  0  0  0  0  0  0  0  0  0
    3.0000    2.5981    0.0000 C   0  0  0  0  0  0  0  0  0  0  0  0
    3.7500    3.8971    0.0000 C   0  0  0  0  0  0  0  0  0  0  0  0
    5.2500    3.8971    0.0000 C   0  0  0  0  0  0  0  0  0  0  0  0
    6.0000    2.5981    0.0000 C   0  0  0  0  0  0  0  0  0  0  0  0
  1  2  1  0
  2  3  1  0
  3  4  2  0
  4  5  1  0
  5  6  1  0
  6  7  1  0
  7  8  2  0
  7  9  1  0
  9 10  1  0
 10 11  2  0
 11 12  1  0
 12 13  2  0
 13 14  1  0
 14 15  1  0
 15 16  1  0
 16 17  1  0
 17 18  1  0
 18 19  1  0
 19 20  2  0
 19 21  1  0
 21 22  1  0
 22 23  2  0
 23 24  1  0
 24 25  2  0
 25 26  1  0
 26 27  2  0
 18 28  1  0
 28 29  2  0
  5 30  1  0
 30 31  2  0
 31 32  1  0
 32 33  2  0
 33 34  1  0
 34 35  2  0
 35  2  1  0
 14 10  1  0
 28 15  1  0
 35 30  1  0
 27 22  1  0
M  END
>  <Title>  (750) 
idABAXgen14

$$$$

     RDKit          2D

 84 85  0  0  0  0  0  0  0  0999 V2000
   -0.3558    2.9447    0.0000 C   0  0  0  0  0  0  0  0  0  0  0  0
    0.8872    3.7844    0.0000 C   0  0  0  0  0  0  0  0  0  0  0  0
    0.1026    5.0628    0.0000 C   0  0  0  0  0  0  0  0  0  0  0  0
   -0.5676    6.4048    0.0000 C   0  0  0  0  0  0  0  0  0  0  0  0
   -1.1183    7.8000    0.0000 C   0  0  0  0  0  0  0  0  0  0  0  0
   -1.5452    9.2380    0.0000 C   0  0  0  0  0  0  0  0  0  0  0  0
   -1.8453   10.7076    0.0000 C   0  0  0  0  0  0  0  0  0  0  0  0
   -2.0161   12.1979    0.0000 C   0  0  0  0  0  0  0  0  0  0  0  0
   -2.0564   13.6973    0.0000 C   0  0  0  0  0  0  0  0  0  0  0  0
   -1.9658   15.1946    0.0000 C   0  0  0  0  0  0  0  0  0  0  0  0
   -1.7451   16.6783    0.0000 C   0  0  0  0  0  0  0  0  0  0  0  0
   -1.3959   18.1371    0.0000 C   0  0  0  0  0  0  0  0  0  0  0  0
   -0.9209   19.5599    0.0000 C   0  0  0  0  0  0  0  0  0  0  0  0
   -0.3237   20.9359    0.0000 C   0  0  0  0  0  0  0  0  0  0  0  0
    0.3912   22.2546    0.0000 C   0  0  0  0  0  0  0  0  0  0  0  0
    1.2182   23.5060    0.0000 C   0  0  0  0  0  0  0  0  0  0  0  0
    2.1512   24.6805    0.0000 C   0  0  0  0  0  0  0  0  0  0  0  0
    3.1830   25.7692    0.0000 C   0  0  0  0  0  0  0  0  0  0  0  0
    4.3058   26.7639    0.0000 C   0  0  0  0  0  0  0  0  0  0  0  0
    5.5110   27.6570    0.0000 C   0  0  0  0  0  0  0  0  0  0  0  0
    6.7894   28.4416    0.0000 C   0  0  0  0  0  0  0  0  0  0  0  0
    8.1314   29.1118    0.0000 C   0  0  0  0  0  0  0  0  0  0  0  0
    9.5266   29.6625    0.0000 C   0  0  0  0  0  0  0  0  0  0  0  0
   10.9646   30.0895    0.0000 C   0  0  0  0  0  0  0  0  0  0  0  0
   12.4342   30.3895    0.0000 C   0  0  0  0  0  0  0  0  0  0  0  0
   13.9245   30.5603    0.0000 C   0  0  0  0  0  0  0  0  0  0  0  0
   15.4239   30.6006    0.0000 C   0  0  0  0  0  0  0  0  0  0  0  0
   16.9212   30.5100    0.0000 C   0  0  0  0  0  0  0  0  0  0  0  0
   18.4049   30.2893    0.0000 C   0  0  0  0  0  0  0  0  0  0  0  0
   19.8637   29.9401    0.0000 C   0  0  0  0  0  0  0  0  0  0  0  0
   21.2865   29.4651    0.0000 C   0  0  0  0  0  0  0  0  0  0  0  0
   22.6625   28.8679    0.0000 C   0  0  0  0  0  0  0  0  0  0  0  0
   23.9812   28.1530    0.0000 C   0  0  0  0  0  0  0  0  0  0  0  0
   25.2326   27.3260    0.0000 C   0  0  0  0  0  0  0  0  0  0  0  0
   26.4071   26.3930    0.0000 C   0  0  0  0  0  0  0  0  0  0  0  0
   27.4959   25.3612    0.0000 C   0  0  0  0  0  0  0  0  0  0  0  0
   28.4905   24.2384    0.0000 C   0  0  0  0  0  0  0  0  0  0  0  0
   29.3836   23.0332    0.0000 C   0  0  0  0  0  0  0  0  0  0  0  0
   30.1682   21.7548    0.0000 C   0  0  0  0  0  0  0  0  0  0  0  0
   30.8384   20.4128    0.0000 C   0  0  0  0  0  0  0  0  0  0  0  0
   31.3891   19.0176    0.0000 C   0  0  0  0  0  0  0  0  0  0  0  0
   31.8161   17.5796    0.0000 C   0  0  0  0  0  0  0  0  0  0  0  0
   32.1161   16.1100    0.0000 C   0  0  0  0  0  0  0  0  0  0  0  0
   32.2869   14.6197    0.0000 C   0  0  0  0  0  0  0  0  0  0  0  0
   32.3272   13.1203    0.0000 C   0  0  0  0  0  0  0  0  0  0  0  0
   32.2366   11.6230    0.0000 C   0  0  0  0  0  0  0  0  0  0  0  0
   32.0159   10.1393    0.0000 C   0  0  0  0  0  0  0  0  0  0  0  0
   31.6667    8.6805    0.0000 C   0  0  0  0  0  0  0  0  0  0  0  0
   31.1917    7.2577    0.0000 C   0  0  0  0  0  0  0  0  0  0  0  0
   30.5945    5.8817    0.0000 C   0  0  0  0  0  0  0  0  0  0  0  0
   29.8796    4.5630    0.0000 C   0  0  0  0  0  0  0  0  0  0  0  0
   29.0526    3.3116    0.0000 C   0  0  0  0  0  0  0  0  0  0  0  0
   28.1196    2.1371    0.0000 C   0  0  0  0  0  0  0  0  0  0  0  0
   27.0878    1.0484    0.0000 C   0  0  0  0  0  0  0  0  0  0  0  0
   25.9650    0.0537    0.0000 C   0  0  0  0  0  0  0  0  0  0  0  0
   24.7598   -0.8394    0.0000 C   0  0  0  0  0  0  0  0  0  0  0  0
   23.4814   -1.6240    0.0000 C   0  0  0  0  0  0  0  0  0  0  0  0
   22.1395   -2.2942    0.0000 C   0  0  0  0  0  0  0  0  0  0  0  0
   20.7442   -2.8449    0.0000 C   0  0  0  0  0  0  0  0  0  0  0  0
   19.3063   -3.2719    0.0000 C   0  0  0  0  0  0  0  0  0  0  0  0
   17.8366   -3.5719    0.0000 C   0  0  0  0  0  0  0  0  0  0  0  0
   16.3463   -3.7427    0.0000 C   0  0  0  0  0  0  0  0  0  0  0  0
   14.8469   -3.7830    0.0000 C   0  0  0  0  0  0  0  0  0  0  0  0
   13.3496   -3.6924    0.0000 C   0  0  0  0  0  0  0  0  0  0  0  0
   11.8659   -3.4717    0.0000 C   0  0  0  0  0  0  0  0  0  0  0  0
   10.4071   -3.1225    0.0000 C   0  0  0  0  0  0  0  0  0  0  0  0
    8.9843   -2.6475    0.0000 C   0  0  0  0  0  0  0  0  0  0  0  0
    7.6083   -2.0503    0.0000 C   0  0  0  0  0  0  0  0  0  0  0  0
    6.2896   -1.3354    0.0000 C   0  0  0  0  0  0  0  0  0  0  0  0
    5.0383   -0.5084    0.0000 C   0  0  0  0  0  0  0  0  0  0  0  0
    3.8637    0.4246    0.0000 C   0  0  0  0  0  0  0  0  0  0  0  0
    2.7750    1.4564    0.0000 C   0  0  0  0  0  0  0  0  0  0  0  0
    3.1339    0.0000    0.0000 C   0  0  0  0  0  0  0  0  0  0  0  0
    2.7750   -1.4564    0.0000 C   0  0  0  0  0  0  0  0  0  0  0  0
    1.7803   -2.5792    0.0000 C   0  0  0  0  0  0  0  0  0  0  0  0
    0.3778   -3.1111    0.0000 C   0  0  0  0  0  0  0  0  0  0  0  0
   -1.1113   -2.9303    0.0000 C   0  0  0  0  0  0  0  0  0  0  0  0
   -2.3458   -2.0782    0.0000 C   0  0  0  0  0  0  0  0  0  0  0  0
   -3.0429   -0.7500    0.0000 C   0  0  0  0  0  0  0  0  0  0  0  0
   -3.0429    0.7500    0.0000 C   0  0  0  0  0  0  0  0  0  0  0  0
   -2.3458    2.0782    0.0000 C   0  0  0  0  0  0  0  0  0  0  0  0
   -1.1113    2.9303    0.0000 C   0  0  0  0  0  0  0  0  0  0  0  0
    0.3778    3.1111    0.0000 C   0  0  0  0  0  0  0  0  0  0  0  0
    1.7803    2.5792    0.0000 C   0  0  0  0  0  0  0  0  0  0  0  0
  1  2  1  0
  2  3  1  0
  3  4  2  0
  4  5  1  0
  5  6  1  0
  6  7  1  0
  7  8  1  0
  8  9  2  0
  9 10  1  0
 10 11  2  0
 11 12  1  0
 12 13  1  0
 13 14  1  0
 14 15  1  0
 15 16  1  0
 16 17  1  0
 17 18  1  0
 18 19  1  0
 19 20  1  0
 20 21  1  0
 21 22  1  0
 22 23  1  0
 23 24  1  0
 24 25  1  0
 25 26  1  0
 26 27  1  0
 27 28  1  0
 28 29  1  0
 29 30  1  0
 30 31  1  0
 31 32  1  0
 32 33  1  0
 33 34  1  0
 34 35  1  0
 35 36  1  0
 36 37  1  0
 37 38  1  0
 38 39  1  0
 39 40  1  0
 40 41  1  0
 41 42  1  0
 42 43  1  0
 43 44  1  0
 44 45  1  0
 45 46  1  0
 46 47  1  0
 47 48  1  0
 48 49  1  0
 49 50  1  0
 50 51  1  0
 51 52  1  0
 52 53  1  0
 53 54  1  0
 54 55  1  0
 55 56  1  0
 56 57  1  0
 57 58  1  0
 58 59  1  0
 59 60  1  0
 60 61  1  0
 61 62  1  0
 62 63  1  0
 63 64  1  0
 64 65  1  0
 65 66  1  0
 66 67  1  0
 67 68  1  0
 68 69  1  0
 69 70  1  0
 70 71  1  0
 71 72  1  0
 72 73  1  0
 73 74  1  0
 74 75  1  0
 75 76  2  0
 76 77  1  0
 77 78  2  0
 78 79  1  0
 79 80  2  0
 80 81  1  0
 81 82  2  0
 82 83  1  0
 83 84  2  0
 84  2  1  0
 84 72  1  0
M  END
>  <Title>  (751) 
idABAYgen14

$$$$

     RDKit          2D

 32 36  0  0  0  0  0  0  0  0999 V2000
   -1.8107   -3.8597    0.0000 C   0  0  0  0  0  0  0  0  0  0  0  0
   -0.7500   -2.7990    0.0000 C   0  0  0  0  0  0  0  0  0  0  0  0
    0.7500   -2.7990    0.0000 C   0  0  0  0  0  0  0  0  0  0  0  0
    1.8107   -3.8597    0.0000 C   0  0  0  0  0  0  0  0  0  0  0  0
    3.2595   -3.4715    0.0000 O   0  0  0  0  0  0  0  0  0  0  0  0
    1.4224   -5.3086    0.0000 N   0  0  0  0  0  0  0  0  0  0  0  0
    2.4831   -6.3692    0.0000 C   0  0  0  0  0  0  0  0  0  0  0  0
    3.9646   -6.1346    0.0000 N   0  0  0  0  0  0  0  0  0  0  0  0
    4.6456   -7.4711    0.0000 N   0  0  0  0  0  0  0  0  0  0  0  0
    3.5849   -8.5318    0.0000 N   0  0  0  0  0  0  0  0  0  0  0  0
    2.2484   -7.8508    0.0000 N   0  0  0  0  0  0  0  0  0  0  0  0
    0.9119   -8.5318    0.0000 N   0  0  0  0  0  0  0  0  0  0  0  0
    0.6773  -10.0133    0.0000 C   0  0  0  0  0  0  0  0  0  0  0  0
   -0.8043  -10.2479    0.0000 C   0  0  0  0  0  0  0  0  0  0  0  0
   -1.4852   -8.9114    0.0000 N   0  0  0  0  0  0  0  0  0  0  0  0
   -2.9668   -8.6768    0.0000 C   0  0  0  0  0  0  0  0  0  0  0  0
   -3.9108   -9.8425    0.0000 O   0  0  0  0  0  0  0  0  0  0  0  0
   -3.5043   -7.2764    0.0000 N   0  0  0  0  0  0  0  0  0  0  0  0
   -4.9859   -7.0418    0.0000 C   0  0  0  0  0  0  0  0  0  0  0  0
   -5.5234   -5.6414    0.0000 N   0  0  0  0  0  0  0  0  0  0  0  0
   -7.0049   -5.4067    0.0000 N   0  0  0  0  0  0  0  0  0  0  0  0
   -7.9489   -6.5725    0.0000 N   0  0  0  0  0  0  0  0  0  0  0  0
   -7.4114   -7.9728    0.0000 N   0  0  0  0  0  0  0  0  0  0  0  0
   -5.9298   -8.2075    0.0000 N   0  0  0  0  0  0  0  0  0  0  0  0
   -0.4246   -7.8508    0.0000 C   0  0  0  0  0  0  0  0  0  0  0  0
   -0.6592   -6.3692    0.0000 O   0  0  0  0  0  0  0  0  0  0  0  0
    0.7500   -1.2990    0.0000 C   0  0  0  0  0  0  0  0  0  0  0  0
    1.5000    0.0000    0.0000 C   0  0  0  0  0  0  0  0  0  0  0  0
    0.7500    1.2990    0.0000 C   0  0  0  0  0  0  0  0  0  0  0  0
   -0.7500    1.2990    0.0000 C   0  0  0  0  0  0  0  0  0  0  0  0
   -1.5000    0.0000    0.0000 C   0  0  0  0  0  0  0  0  0  0  0  0
   -0.7500   -1.2990    0.0000 C   0  0  0  0  0  0  0  0  0  0  0  0
  1  2  1  0
  2  3  2  0
  3  4  1  0
  4  5  2  0
  4  6  1  0
  6  7  1  0
  7  8  2  0
  8  9  1  0
  9 10  2  0
 10 11  1  0
 11 12  1  0
 12 13  1  0
 13 14  1  0
 14 15  1  0
 15 16  1  0
 16 17  2  0
 16 18  1  0
 18 19  1  0
 19 20  2  0
 20 21  1  0
 21 22  2  0
 22 23  1  0
 23 24  2  0
 15 25  1  0
 25 26  2  0
  3 27  1  0
 27 28  2  0
 28 29  1  0
 29 30  2  0
 30 31  1  0
 31 32  2  0
 32  2  1  0
 11  7  1  0
 25 12  1  0
 32 27  1  0
 24 19  1  0
M  END
>  <Title>  (752) 
idABAZgen14

$$$$

     RDKit          2D

  7  6  0  0  0  0  0  0  0  0999 V2000
    0.0000    0.0000    0.0000 C   0  0  0  0  0  0  0  0  0  0  0  0
    1.2990    0.7500    0.0000 C   0  0  0  0  0  0  0  0  0  0  0  0
    2.5981   -0.0000    0.0000 C   0  0  0  0  0  0  0  0  0  0  0  0
    3.8971    0.7500    0.0000 C   0  0  0  0  0  0  0  0  0  0  0  0
    5.1962   -0.0000    0.0000 C   0  0  0  0  0  0  0  0  0  0  0  0
    3.8971    2.2500    0.0000 C   0  0  0  0  0  0  0  0  0  0  0  0
    5.1962    3.0000    0.0000 C   0  0  0  0  0  0  0  0  0  0  0  0
  1  2  1  0
  2  3  1  0
  3  4  1  0
  4  5  1  0
  4  6  1  0
  6  7  1  0
M  END
>  <Title>  (753) 
idABBAgen14

$$$$

     RDKit          2D

  6  6  0  0  0  0  0  0  0  0999 V2000
    2.7760    0.0000    0.0000 C   0  0  0  0  0  0  0  0  0  0  0  0
    1.2760    0.0000    0.0000 C   0  0  0  0  0  0  0  0  0  0  0  0
    0.3943    1.2135    0.0000 C   0  0  0  0  0  0  0  0  0  0  0  0
   -1.0323    0.7500    0.0000 N   0  0  0  0  0  0  0  0  0  0  0  0
   -1.0323   -0.7500    0.0000 C   0  0  0  0  0  0  0  0  0  0  0  0
    0.3943   -1.2135    0.0000 N   0  0  0  0  0  0  0  0  0  0  0  0
  1  2  1  0
  2  3  1  0
  3  4  1  0
  4  5  1  0
  5  6  2  0
  6  2  1  0
M  END
>  <Title>  (754) 
idABBBgen14

$$$$

     RDKit          2D

  7  7  0  0  0  0  0  0  0  0999 V2000
    4.2760   -0.0000    0.0000 N   0  0  0  0  0  0  0  0  0  0  0  0
    2.7760    0.0000    0.0000 C   0  0  0  0  0  0  0  0  0  0  0  0
    1.2760    0.0000    0.0000 C   0  0  0  0  0  0  0  0  0  0  0  0
    0.3943    1.2135    0.0000 C   0  0  0  0  0  0  0  0  0  0  0  0
   -1.0323    0.7500    0.0000 C   0  0  0  0  0  0  0  0  0  0  0  0
   -1.0323   -0.7500    0.0000 C   0  0  0  0  0  0  0  0  0  0  0  0
    0.3943   -1.2135    0.0000 C   0  0  0  0  0  0  0  0  0  0  0  0
  1  2  3  0
  2  3  1  0
  3  4  2  0
  4  5  1  0
  5  6  1  0
  6  7  2  0
  7  3  1  0
M  END
>  <Title>  (755) 
idABBCgen14

$$$$

     RDKit          2D

 14 13  0  0  0  0  0  0  0  0999 V2000
    0.0000    0.0000    0.0000 C   0  0  0  0  0  0  0  0  0  0  0  0
    1.2990    0.7500    0.0000 C   0  0  0  0  0  0  0  0  0  0  0  0
    2.5981   -0.0000    0.0000 C   0  0  0  0  0  0  0  0  0  0  0  0
    2.5981   -1.5000    0.0000 O   0  0  0  0  0  0  0  0  0  0  0  0
    3.8971    0.7500    0.0000 C   0  0  0  0  0  0  0  0  0  0  0  0
    5.1962   -0.0000    0.0000 C   0  0  0  0  0  0  0  0  0  0  0  0
    6.4952    0.7500    0.0000 C   0  0  0  0  0  0  0  0  0  0  0  0
    5.1962   -1.5000    0.0000 N   0  0  0  0  0  0  0  0  0  0  0  0
    6.4952   -2.2500    0.0000 C   0  0  0  0  0  0  0  0  0  0  0  0
    7.7942   -1.5000    0.0000 O   0  0  0  0  0  0  0  0  0  0  0  0
    6.4952   -3.7500    0.0000 C   0  0  0  0  0  0  0  0  0  0  0  0
    7.7942   -4.5000    0.0000 C   0  0  0  0  0  0  0  0  0  0  0  0
    7.7942   -6.0000    0.0000 C   0  0  0  0  0  0  0  0  0  0  0  0
    9.0933   -3.7500    0.0000 C   0  0  0  0  0  0  0  0  0  0  0  0
  1  2  1  0
  2  3  1  0
  3  4  1  0
  3  5  1  0
  5  6  1  0
  6  7  1  0
  6  8  1  0
  8  9  1  0
  9 10  2  0
  9 11  1  0
 11 12  1  0
 12 13  1  0
 12 14  1  0
M  END
>  <Title>  (756) 
idABBDgen14

$$$$

     RDKit          2D

 38 42  0  0  0  0  0  0  0  0999 V2000
    8.6211  -10.6895    0.0000 C   0  0  0  0  0  0  0  0  0  0  0  0
    8.2328   -9.2406    0.0000 C   0  0  0  0  0  0  0  0  0  0  0  0
    9.2935   -8.1799    0.0000 C   0  0  0  0  0  0  0  0  0  0  0  0
   10.7424   -8.5681    0.0000 C   0  0  0  0  0  0  0  0  0  0  0  0
    8.9053   -6.7310    0.0000 N   0  0  0  0  0  0  0  0  0  0  0  0
    7.4564   -6.3428    0.0000 C   0  0  0  0  0  0  0  0  0  0  0  0
    7.0681   -4.8939    0.0000 C   0  0  0  0  0  0  0  0  0  0  0  0
    5.7691   -4.1439    0.0000 C   0  0  0  0  0  0  0  0  0  0  0  0
    4.3202   -4.5321    0.0000 C   0  0  0  0  0  0  0  0  0  0  0  0
    3.9320   -5.9810    0.0000 C   0  0  0  0  0  0  0  0  0  0  0  0
    4.9926   -7.0417    0.0000 O   0  0  0  0  0  0  0  0  0  0  0  0
    2.4831   -6.3692    0.0000 C   0  0  0  0  0  0  0  0  0  0  0  0
    2.0949   -7.8181    0.0000 C   0  0  0  0  0  0  0  0  0  0  0  0
    3.0388   -8.9839    0.0000 N   0  0  0  0  0  0  0  0  0  0  0  0
    2.2219  -10.2419    0.0000 N   0  0  0  0  0  0  0  0  0  0  0  0
    0.7730   -9.8536    0.0000 N   0  0  0  0  0  0  0  0  0  0  0  0
    0.6945   -8.3557    0.0000 N   0  0  0  0  0  0  0  0  0  0  0  0
   -0.5635   -7.5387    0.0000 N   0  0  0  0  0  0  0  0  0  0  0  0
   -0.6420   -6.0408    0.0000 C   0  0  0  0  0  0  0  0  0  0  0  0
   -2.0909   -5.6526    0.0000 C   0  0  0  0  0  0  0  0  0  0  0  0
   -2.9079   -6.9106    0.0000 N   0  0  0  0  0  0  0  0  0  0  0  0
   -4.4058   -6.9891    0.0000 C   0  0  0  0  0  0  0  0  0  0  0  0
   -5.0868   -8.3256    0.0000 O   0  0  0  0  0  0  0  0  0  0  0  0
   -5.2228   -5.7311    0.0000 N   0  0  0  0  0  0  0  0  0  0  0  0
   -6.7207   -5.8096    0.0000 C   0  0  0  0  0  0  0  0  0  0  0  0
   -7.5377   -4.5516    0.0000 N   0  0  0  0  0  0  0  0  0  0  0  0
   -9.0356   -4.6301    0.0000 N   0  0  0  0  0  0  0  0  0  0  0  0
   -9.7166   -5.9666    0.0000 N   0  0  0  0  0  0  0  0  0  0  0  0
   -8.8996   -7.2246    0.0000 N   0  0  0  0  0  0  0  0  0  0  0  0
   -7.4017   -7.1461    0.0000 N   0  0  0  0  0  0  0  0  0  0  0  0
   -1.9639   -8.0763    0.0000 C   0  0  0  0  0  0  0  0  0  0  0  0
   -2.3521   -9.5252    0.0000 O   0  0  0  0  0  0  0  0  0  0  0  0
    6.5191   -2.8449    0.0000 C   0  0  0  0  0  0  0  0  0  0  0  0
    6.5191   -1.3449    0.0000 C   0  0  0  0  0  0  0  0  0  0  0  0
    7.8181   -0.5949    0.0000 C   0  0  0  0  0  0  0  0  0  0  0  0
    9.1172   -1.3449    0.0000 C   0  0  0  0  0  0  0  0  0  0  0  0
    9.1172   -2.8449    0.0000 C   0  0  0  0  0  0  0  0  0  0  0  0
    7.8181   -3.5949    0.0000 C   0  0  0  0  0  0  0  0  0  0  0  0
  1  2  1  0
  2  3  1  0
  3  4  1  0
  3  5  1  0
  5  6  1  0
  6  7  1  0
  7  8  2  0
  8  9  1  0
  9 10  1  0
 10 11  2  0
 10 12  1  0
 12 13  1  0
 13 14  2  0
 14 15  1  0
 15 16  2  0
 16 17  1  0
 17 18  1  0
 18 19  1  0
 19 20  1  0
 20 21  1  0
 21 22  1  0
 22 23  2  0
 22 24  1  0
 24 25  1  0
 25 26  2  0
 26 27  1  0
 27 28  2  0
 28 29  1  0
 29 30  2  0
 21 31  1  0
 31 32  2  0
  8 33  1  0
 33 34  2  0
 34 35  1  0
 35 36  2  0
 36 37  1  0
 37 38  2  0
 38  7  1  0
 17 13  1  0
 31 18  1  0
 38 33  1  0
 30 25  1  0
M  END
>  <Title>  (757) 
idABBEgen14

$$$$

     RDKit          2D

 27 30  0  0  0  0  0  0  0  0999 V2000
   -7.7227   -7.5835    0.0000 C   0  0  0  0  0  0  0  0  0  0  0  0
   -6.2961   -8.0470    0.0000 C   0  0  0  0  0  0  0  0  0  0  0  0
   -5.9843   -9.5142    0.0000 C   0  0  0  0  0  0  0  0  0  0  0  0
   -5.1814   -7.0433    0.0000 C   0  0  0  0  0  0  0  0  0  0  0  0
   -3.7548   -7.5069    0.0000 C   0  0  0  0  0  0  0  0  0  0  0  0
   -3.4430   -8.9741    0.0000 O   0  0  0  0  0  0  0  0  0  0  0  0
   -2.6401   -6.5032    0.0000 N   0  0  0  0  0  0  0  0  0  0  0  0
   -1.2135   -6.9667    0.0000 C   0  0  0  0  0  0  0  0  0  0  0  0
   -0.7500   -8.3933    0.0000 N   0  0  0  0  0  0  0  0  0  0  0  0
    0.7500   -8.3933    0.0000 N   0  0  0  0  0  0  0  0  0  0  0  0
    1.2135   -6.9667    0.0000 N   0  0  0  0  0  0  0  0  0  0  0  0
   -0.0000   -6.0850    0.0000 N   0  0  0  0  0  0  0  0  0  0  0  0
   -0.0000   -4.5850    0.0000 N   0  0  0  0  0  0  0  0  0  0  0  0
    1.3515   -3.9342    0.0000 C   0  0  0  0  0  0  0  0  0  0  0  0
    1.6852   -2.4718    0.0000 C   0  0  0  0  0  0  0  0  0  0  0  0
    0.7500   -1.2990    0.0000 C   0  0  0  0  0  0  0  0  0  0  0  0
    1.5000    0.0000    0.0000 C   0  0  0  0  0  0  0  0  0  0  0  0
    0.7500    1.2990    0.0000 C   0  0  0  0  0  0  0  0  0  0  0  0
   -0.7500    1.2990    0.0000 C   0  0  0  0  0  0  0  0  0  0  0  0
   -1.5000    0.0000    0.0000 C   0  0  0  0  0  0  0  0  0  0  0  0
   -0.7500   -1.2990    0.0000 C   0  0  0  0  0  0  0  0  0  0  0  0
   -1.6852   -2.4718    0.0000 C   0  0  0  0  0  0  0  0  0  0  0  0
   -3.1186   -2.0297    0.0000 C   0  0  0  0  0  0  0  0  0  0  0  0
   -4.2182   -3.0499    0.0000 C   0  0  0  0  0  0  0  0  0  0  0  0
   -3.8844   -4.5123    0.0000 C   0  0  0  0  0  0  0  0  0  0  0  0
   -2.4510   -4.9544    0.0000 C   0  0  0  0  0  0  0  0  0  0  0  0
   -1.3515   -3.9342    0.0000 C   0  0  0  0  0  0  0  0  0  0  0  0
  1  2  1  0
  2  3  1  0
  2  4  1  0
  4  5  1  0
  5  6  2  0
  5  7  1  0
  7  8  1  0
  8  9  2  0
  9 10  1  0
 10 11  2  0
 11 12  1  0
 12 13  1  0
 13 14  1  0
 14 15  1  0
 15 16  1  0
 16 17  2  0
 17 18  1  0
 18 19  2  0
 19 20  1  0
 20 21  2  0
 21 22  1  0
 22 23  2  0
 23 24  1  0
 24 25  2  0
 25 26  1  0
 26 27  2  0
 12  8  1  0
 27 13  1  0
 21 16  1  0
 27 22  1  0
M  END
>  <Title>  (758) 
idABBFgen14

$$$$

     RDKit          2D

104105  0  0  0  0  0  0  0  0999 V2000
    7.8288    4.3568    0.0000 C   0  0  0  0  0  0  0  0  0  0  0  0
    8.6221    4.4355    0.0000 C   0  0  0  0  0  0  0  0  0  0  0  0
    8.5452    5.9335    0.0000 C   0  0  0  0  0  0  0  0  0  0  0  0
    8.6111    7.4321    0.0000 C   0  0  0  0  0  0  0  0  0  0  0  0
    8.8191    8.9176    0.0000 C   0  0  0  0  0  0  0  0  0  0  0  0
    9.1674   10.3766    0.0000 C   0  0  0  0  0  0  0  0  0  0  0  0
    9.6528   11.7959    0.0000 C   0  0  0  0  0  0  0  0  0  0  0  0
   10.2710   13.1626    0.0000 C   0  0  0  0  0  0  0  0  0  0  0  0
   11.0162   14.4644    0.0000 C   0  0  0  0  0  0  0  0  0  0  0  0
   11.8818   15.6894    0.0000 C   0  0  0  0  0  0  0  0  0  0  0  0
   12.8599   16.8266    0.0000 C   0  0  0  0  0  0  0  0  0  0  0  0
   13.9417   17.8657    0.0000 C   0  0  0  0  0  0  0  0  0  0  0  0
   15.1174   18.7973    0.0000 C   0  0  0  0  0  0  0  0  0  0  0  0
   16.3763   19.6128    0.0000 C   0  0  0  0  0  0  0  0  0  0  0  0
   17.7070   20.3050    0.0000 C   0  0  0  0  0  0  0  0  0  0  0  0
   19.0975   20.8676    0.0000 C   0  0  0  0  0  0  0  0  0  0  0  0
   20.5352   21.2955    0.0000 C   0  0  0  0  0  0  0  0  0  0  0  0
   22.0071   21.5848    0.0000 C   0  0  0  0  0  0  0  0  0  0  0  0
   23.4997   21.7328    0.0000 C   0  0  0  0  0  0  0  0  0  0  0  0
   24.9997   21.7383    0.0000 C   0  0  0  0  0  0  0  0  0  0  0  0
   26.4935   21.6012    0.0000 C   0  0  0  0  0  0  0  0  0  0  0  0
   27.9674   21.3227    0.0000 C   0  0  0  0  0  0  0  0  0  0  0  0
   29.4082   20.9054    0.0000 C   0  0  0  0  0  0  0  0  0  0  0  0
   30.8027   20.3530    0.0000 C   0  0  0  0  0  0  0  0  0  0  0  0
   32.1385   19.6705    0.0000 C   0  0  0  0  0  0  0  0  0  0  0  0
   33.4033   18.8642    0.0000 C   0  0  0  0  0  0  0  0  0  0  0  0
   34.5858   17.9413    0.0000 C   0  0  0  0  0  0  0  0  0  0  0  0
   35.6752   16.9102    0.0000 C   0  0  0  0  0  0  0  0  0  0  0  0
   36.6616   15.7801    0.0000 C   0  0  0  0  0  0  0  0  0  0  0  0
   37.5362   14.5615    0.0000 C   0  0  0  0  0  0  0  0  0  0  0  0
   38.2909   13.2652    0.0000 C   0  0  0  0  0  0  0  0  0  0  0  0
   38.9190   11.9030    0.0000 C   0  0  0  0  0  0  0  0  0  0  0  0
   39.4148   10.4873    0.0000 C   0  0  0  0  0  0  0  0  0  0  0  0
   39.7738    9.0309    0.0000 C   0  0  0  0  0  0  0  0  0  0  0  0
   39.9927    7.5470    0.0000 C   0  0  0  0  0  0  0  0  0  0  0  0
   40.0696    6.0489    0.0000 C   0  0  0  0  0  0  0  0  0  0  0  0
   40.0037    4.5504    0.0000 C   0  0  0  0  0  0  0  0  0  0  0  0
   39.7957    3.0649    0.0000 C   0  0  0  0  0  0  0  0  0  0  0  0
   39.4474    1.6059    0.0000 C   0  0  0  0  0  0  0  0  0  0  0  0
   38.9619    0.1866    0.0000 C   0  0  0  0  0  0  0  0  0  0  0  0
   38.3438   -1.1801    0.0000 C   0  0  0  0  0  0  0  0  0  0  0  0
   37.5986   -2.4819    0.0000 C   0  0  0  0  0  0  0  0  0  0  0  0
   36.7330   -3.7069    0.0000 C   0  0  0  0  0  0  0  0  0  0  0  0
   35.7548   -4.8442    0.0000 C   0  0  0  0  0  0  0  0  0  0  0  0
   34.6730   -5.8832    0.0000 C   0  0  0  0  0  0  0  0  0  0  0  0
   33.4974   -6.8148    0.0000 C   0  0  0  0  0  0  0  0  0  0  0  0
   32.2385   -7.6304    0.0000 C   0  0  0  0  0  0  0  0  0  0  0  0
   30.9077   -8.3226    0.0000 C   0  0  0  0  0  0  0  0  0  0  0  0
   29.5172   -8.8852    0.0000 C   0  0  0  0  0  0  0  0  0  0  0  0
   28.0796   -9.3130    0.0000 C   0  0  0  0  0  0  0  0  0  0  0  0
   26.6077   -9.6023    0.0000 C   0  0  0  0  0  0  0  0  0  0  0  0
   25.1150   -9.7504    0.0000 C   0  0  0  0  0  0  0  0  0  0  0  0
   23.6150   -9.7558    0.0000 C   0  0  0  0  0  0  0  0  0  0  0  0
   22.1213   -9.6187    0.0000 C   0  0  0  0  0  0  0  0  0  0  0  0
   20.6474   -9.3402    0.0000 C   0  0  0  0  0  0  0  0  0  0  0  0
   19.2066   -8.9229    0.0000 C   0  0  0  0  0  0  0  0  0  0  0  0
   17.8120   -8.3705    0.0000 C   0  0  0  0  0  0  0  0  0  0  0  0
   16.4763   -7.6881    0.0000 C   0  0  0  0  0  0  0  0  0  0  0  0
   15.2114   -6.8817    0.0000 C   0  0  0  0  0  0  0  0  0  0  0  0
   14.0290   -5.9588    0.0000 C   0  0  0  0  0  0  0  0  0  0  0  0
   12.9396   -4.9277    0.0000 C   0  0  0  0  0  0  0  0  0  0  0  0
   11.9531   -3.7977    0.0000 C   0  0  0  0  0  0  0  0  0  0  0  0
   11.0786   -2.5790    0.0000 C   0  0  0  0  0  0  0  0  0  0  0  0
   10.3238   -1.2827    0.0000 C   0  0  0  0  0  0  0  0  0  0  0  0
    9.6957    0.0794    0.0000 C   0  0  0  0  0  0  0  0  0  0  0  0
    9.1999    1.4951    0.0000 C   0  0  0  0  0  0  0  0  0  0  0  0
    8.6206   -0.0000    0.0000 C   0  0  0  0  0  0  0  0  0  0  0  0
    8.5090   -1.3828    0.0000 C   0  0  0  0  0  0  0  0  0  0  0  0
    8.1770   -2.7299    0.0000 C   0  0  0  0  0  0  0  0  0  0  0  0
    7.6332   -4.0062    0.0000 C   0  0  0  0  0  0  0  0  0  0  0  0
    6.8917   -5.1788    0.0000 C   0  0  0  0  0  0  0  0  0  0  0  0
    5.9717   -6.2172    0.0000 C   0  0  0  0  0  0  0  0  0  0  0  0
    4.8971   -7.0946    0.0000 C   0  0  0  0  0  0  0  0  0  0  0  0
    3.6956   -7.7883    0.0000 C   0  0  0  0  0  0  0  0  0  0  0  0
    2.3984   -8.2803    0.0000 C   0  0  0  0  0  0  0  0  0  0  0  0
    1.0391   -8.5578    0.0000 C   0  0  0  0  0  0  0  0  0  0  0  0
   -0.3471   -8.6136    0.0000 C   0  0  0  0  0  0  0  0  0  0  0  0
   -1.7243   -8.4464    0.0000 C   0  0  0  0  0  0  0  0  0  0  0  0
   -3.0569   -8.0604    0.0000 C   0  0  0  0  0  0  0  0  0  0  0  0
   -4.3103   -7.4657    0.0000 C   0  0  0  0  0  0  0  0  0  0  0  0
   -5.4521   -6.6776    0.0000 C   0  0  0  0  0  0  0  0  0  0  0  0
   -6.4526   -5.7165    0.0000 C   0  0  0  0  0  0  0  0  0  0  0  0
   -7.2861   -4.6074    0.0000 C   0  0  0  0  0  0  0  0  0  0  0  0
   -7.9308   -3.3790    0.0000 C   0  0  0  0  0  0  0  0  0  0  0  0
   -8.3701   -2.0631    0.0000 C   0  0  0  0  0  0  0  0  0  0  0  0
   -8.5927   -0.6937    0.0000 C   0  0  0  0  0  0  0  0  0  0  0  0
   -8.5927    0.6937    0.0000 C   0  0  0  0  0  0  0  0  0  0  0  0
   -8.3701    2.0631    0.0000 C   0  0  0  0  0  0  0  0  0  0  0  0
   -7.9308    3.3790    0.0000 C   0  0  0  0  0  0  0  0  0  0  0  0
   -7.2861    4.6074    0.0000 C   0  0  0  0  0  0  0  0  0  0  0  0
   -6.4526    5.7165    0.0000 C   0  0  0  0  0  0  0  0  0  0  0  0
   -5.4521    6.6776    0.0000 C   0  0  0  0  0  0  0  0  0  0  0  0
   -4.3103    7.4657    0.0000 C   0  0  0  0  0  0  0  0  0  0  0  0
   -3.0569    8.0604    0.0000 C   0  0  0  0  0  0  0  0  0  0  0  0
   -1.7243    8.4464    0.0000 C   0  0  0  0  0  0  0  0  0  0  0  0
   -0.3471    8.6136    0.0000 C   0  0  0  0  0  0  0  0  0  0  0  0
    1.0391    8.5578    0.0000 C   0  0  0  0  0  0  0  0  0  0  0  0
    2.3984    8.2803    0.0000 C   0  0  0  0  0  0  0  0  0  0  0  0
    3.6956    7.7883    0.0000 C   0  0  0  0  0  0  0  0  0  0  0  0
    4.8971    7.0946    0.0000 C   0  0  0  0  0  0  0  0  0  0  0  0
    5.9717    6.2172    0.0000 C   0  0  0  0  0  0  0  0  0  0  0  0
    6.8917    5.1788    0.0000 C   0  0  0  0  0  0  0  0  0  0  0  0
    7.6332    4.0062    0.0000 C   0  0  0  0  0  0  0  0  0  0  0  0
    8.8410    2.9515    0.0000 C   0  0  0  0  0  0  0  0  0  0  0  0
  1  2  1  0
  2  3  1  0
  3  4  1  0
  4  5  1  0
  5  6  1  0
  6  7  1  0
  7  8  1  0
  8  9  1  0
  9 10  1  0
 10 11  1  0
 11 12  1  0
 12 13  1  0
 13 14  1  0
 14 15  1  0
 15 16  1  0
 16 17  1  0
 17 18  1  0
 18 19  1  0
 19 20  1  0
 20 21  1  0
 21 22  1  0
 22 23  1  0
 23 24  1  0
 24 25  1  0
 25 26  1  0
 26 27  1  0
 27 28  1  0
 28 29  1  0
 29 30  1  0
 30 31  1  0
 31 32  1  0
 32 33  1  0
 33 34  1  0
 34 35  1  0
 35 36  1  0
 36 37  1  0
 37 38  1  0
 38 39  1  0
 39 40  1  0
 40 41  1  0
 41 42  1  0
 42 43  1  0
 43 44  1  0
 44 45  1  0
 45 46  1  0
 46 47  1  0
 47 48  1  0
 48 49  1  0
 49 50  1  0
 50 51  1  0
 51 52  1  0
 52 53  1  0
 53 54  1  0
 54 55  1  0
 55 56  1  0
 56 57  1  0
 57 58  1  0
 58 59  1  0
 59 60  1  0
 60 61  1  0
 61 62  1  0
 62 63  1  0
 63 64  1  0
 64 65  1  0
 65 66  1  0
 66 67  1  0
 67 68  1  0
 68 69  1  0
 69 70  1  0
 70 71  1  0
 71 72  1  0
 72 73  1  0
 73 74  1  0
 74 75  1  0
 75 76  1  0
 76 77  1  0
 77 78  1  0
 78 79  1  0
 79 80  1  0
 80 81  1  0
 81 82  1  0
 82 83  1  0
 83 84  1  0
 84 85  1  0
 85 86  1  0
 86 87  1  0
 87 88  1  0
 88 89  1  0
 89 90  1  0
 90 91  1  0
 91 92  2  0
 92 93  1  0
 93 94  2  0
 94 95  1  0
 95 96  2  0
 96 97  1  0
 97 98  2  0
 98 99  1  0
 99100  2  0
100101  1  0
101102  2  0
102103  1  0
103104  2  0
104  2  1  0
104 66  1  0
M  END
>  <Title>  (759) 
idABBGgen14

$$$$

     RDKit          2D

 39 43  0  0  0  0  0  0  0  0999 V2000
   -3.1965   -1.7857    0.0000 C   0  0  0  0  0  0  0  0  0  0  0  0
   -1.8107   -2.3597    0.0000 C   0  0  0  0  0  0  0  0  0  0  0  0
   -1.8107   -3.8597    0.0000 C   0  0  0  0  0  0  0  0  0  0  0  0
   -0.7500   -4.9204    0.0000 C   0  0  0  0  0  0  0  0  0  0  0  0
    0.7500   -4.9204    0.0000 C   0  0  0  0  0  0  0  0  0  0  0  0
    1.3240   -6.3062    0.0000 C   0  0  0  0  0  0  0  0  0  0  0  0
    2.8112   -6.5020    0.0000 O   0  0  0  0  0  0  0  0  0  0  0  0
    0.4109   -7.4962    0.0000 N   0  0  0  0  0  0  0  0  0  0  0  0
    0.9849   -8.8820    0.0000 C   0  0  0  0  0  0  0  0  0  0  0  0
    2.4435   -9.2322    0.0000 N   0  0  0  0  0  0  0  0  0  0  0  0
    2.5612  -10.7276    0.0000 N   0  0  0  0  0  0  0  0  0  0  0  0
    1.1753  -11.3016    0.0000 N   0  0  0  0  0  0  0  0  0  0  0  0
    0.2012  -10.1610    0.0000 N   0  0  0  0  0  0  0  0  0  0  0  0
   -1.2942  -10.2787    0.0000 N   0  0  0  0  0  0  0  0  0  0  0  0
   -2.0780  -11.5576    0.0000 C   0  0  0  0  0  0  0  0  0  0  0  0
   -3.5365  -11.2075    0.0000 C   0  0  0  0  0  0  0  0  0  0  0  0
   -3.6542   -9.7121    0.0000 N   0  0  0  0  0  0  0  0  0  0  0  0
   -4.9332   -8.9283    0.0000 C   0  0  0  0  0  0  0  0  0  0  0  0
   -6.2514   -9.6441    0.0000 O   0  0  0  0  0  0  0  0  0  0  0  0
   -4.8939   -7.4289    0.0000 N   0  0  0  0  0  0  0  0  0  0  0  0
   -6.1729   -6.6451    0.0000 C   0  0  0  0  0  0  0  0  0  0  0  0
   -6.1336   -5.1456    0.0000 N   0  0  0  0  0  0  0  0  0  0  0  0
   -7.4126   -4.3619    0.0000 N   0  0  0  0  0  0  0  0  0  0  0  0
   -8.7308   -5.0776    0.0000 N   0  0  0  0  0  0  0  0  0  0  0  0
   -8.7700   -6.5771    0.0000 N   0  0  0  0  0  0  0  0  0  0  0  0
   -7.4911   -7.3608    0.0000 N   0  0  0  0  0  0  0  0  0  0  0  0
   -2.2684   -9.1381    0.0000 C   0  0  0  0  0  0  0  0  0  0  0  0
   -1.9182   -7.6795    0.0000 O   0  0  0  0  0  0  0  0  0  0  0  0
    1.8107   -3.8597    0.0000 C   0  0  0  0  0  0  0  0  0  0  0  0
    3.1965   -4.4337    0.0000 O   0  0  0  0  0  0  0  0  0  0  0  0
    1.8107   -2.3597    0.0000 O   0  0  0  0  0  0  0  0  0  0  0  0
    0.7500   -1.2990    0.0000 C   0  0  0  0  0  0  0  0  0  0  0  0
    1.5000    0.0000    0.0000 C   0  0  0  0  0  0  0  0  0  0  0  0
    0.7500    1.2990    0.0000 C   0  0  0  0  0  0  0  0  0  0  0  0
   -0.7500    1.2990    0.0000 C   0  0  0  0  0  0  0  0  0  0  0  0
   -1.5000    2.5981    0.0000 C   0  0  0  0  0  0  0  0  0  0  0  0
   -2.2500    3.8971    0.0000 N   0  0  0  0  0  0  0  0  0  0  0  0
   -1.5000    0.0000    0.0000 C   0  0  0  0  0  0  0  0  0  0  0  0
   -0.7500   -1.2990    0.0000 C   0  0  0  0  0  0  0  0  0  0  0  0
  1  2  1  0
  2  3  1  0
  3  4  1  0
  4  5  1  0
  5  6  1  0
  6  7  2  0
  6  8  1  0
  8  9  1  0
  9 10  2  0
 10 11  1  0
 11 12  2  0
 12 13  1  0
 13 14  1  0
 14 15  1  0
 15 16  1  0
 16 17  1  0
 17 18  1  0
 18 19  2  0
 18 20  1  0
 20 21  1  0
 21 22  2  0
 22 23  1  0
 23 24  2  0
 24 25  1  0
 25 26  2  0
 17 27  1  0
 27 28  2  0
  5 29  1  0
 29 30  2  0
 29 31  1  0
 31 32  1  0
 32 33  2  0
 33 34  1  0
 34 35  2  0
 35 36  1  0
 36 37  3  0
 35 38  1  0
 38 39  2  0
 39  2  1  0
 13  9  1  0
 27 14  1  0
 39 32  1  0
 26 21  1  0
M  END
>  <Title>  (760) 
idABBHgen14

$$$$

     RDKit          2D

  8  8  0  0  0  0  0  0  0  0999 V2000
    3.5260   -1.2990    0.0000 C   0  0  0  0  0  0  0  0  0  0  0  0
    2.7760    0.0000    0.0000 C   0  0  0  0  0  0  0  0  0  0  0  0
    3.5260    1.2990    0.0000 O   0  0  0  0  0  0  0  0  0  0  0  0
    1.2760    0.0000    0.0000 C   0  0  0  0  0  0  0  0  0  0  0  0
    0.3943    1.2135    0.0000 C   0  0  0  0  0  0  0  0  0  0  0  0
   -1.0323    0.7500    0.0000 C   0  0  0  0  0  0  0  0  0  0  0  0
   -1.0323   -0.7500    0.0000 C   0  0  0  0  0  0  0  0  0  0  0  0
    0.3943   -1.2135    0.0000 N   0  0  0  0  0  0  0  0  0  0  0  0
  1  2  1  0
  2  3  2  0
  2  4  1  0
  4  5  2  0
  5  6  1  0
  6  7  1  0
  7  8  2  0
  8  4  1  0
M  END
>  <Title>  (761) 
idABBIgen14

$$$$

     RDKit          2D

 28 27  0  0  0  0  0  0  0  0999 V2000
    0.0000    0.0000    0.0000 C   0  0  0  0  0  0  0  0  0  0  0  0
   -0.0000   -1.5000    0.0000 C   0  0  0  0  0  0  0  0  0  0  0  0
   -0.0000   -3.0000    0.0000 C   0  0  0  0  0  0  0  0  0  0  0  0
   -0.0000   -4.5000    0.0000 C   0  0  0  0  0  0  0  0  0  0  0  0
   -0.0000   -6.0000    0.0000 C   0  0  0  0  0  0  0  0  0  0  0  0
   -0.0000   -7.5000    0.0000 C   0  0  0  0  0  0  0  0  0  0  0  0
   -0.0000   -9.0000    0.0000 C   0  0  0  0  0  0  0  0  0  0  0  0
   -0.0000  -10.5000    0.0000 C   0  0  0  0  0  0  0  0  0  0  0  0
   -0.0000  -12.0000    0.0000 C   0  0  0  0  0  0  0  0  0  0  0  0
   -0.0000  -13.5000    0.0000 C   0  0  0  0  0  0  0  0  0  0  0  0
   -0.0000  -15.0000    0.0000 C   0  0  0  0  0  0  0  0  0  0  0  0
   -0.0000  -16.5000    0.0000 C   0  0  0  0  0  0  0  0  0  0  0  0
   -0.0000  -18.0000    0.0000 C   0  0  0  0  0  0  0  0  0  0  0  0
   -0.0000  -19.5000    0.0000 C   0  0  0  0  0  0  0  0  0  0  0  0
   -0.0000  -21.0000    0.0000 C   0  0  0  0  0  0  0  0  0  0  0  0
   -0.0000  -22.5000    0.0000 C   0  0  0  0  0  0  0  0  0  0  0  0
   -0.0000  -24.0000    0.0000 C   0  0  0  0  0  0  0  0  0  0  0  0
   -0.0000  -25.5000    0.0000 C   0  0  0  0  0  0  0  0  0  0  0  0
   -0.0000  -27.0000    0.0000 C   0  0  0  0  0  0  0  0  0  0  0  0
   -0.0000  -28.5000    0.0000 C   0  0  0  0  0  0  0  0  0  0  0  0
   -0.0000  -30.0000    0.0000 C   0  0  0  0  0  0  0  0  0  0  0  0
   -0.0000  -31.5000    0.0000 C   0  0  0  0  0  0  0  0  0  0  0  0
   -0.0000  -33.0000    0.0000 C   0  0  0  0  0  0  0  0  0  0  0  0
   -0.0000  -34.5000    0.0000 C   0  0  0  0  0  0  0  0  0  0  0  0
   -0.0000  -36.0000    0.0000 C   0  0  0  0  0  0  0  0  0  0  0  0
   -0.0000  -37.5000    0.0000 C   0  0  0  0  0  0  0  0  0  0  0  0
   -0.0000  -39.0000    0.0000 C   0  0  0  0  0  0  0  0  0  0  0  0
   -0.0000  -40.5000    0.0000 C   0  0  0  0  0  0  0  0  0  0  0  0
  1  2  3  0
  2  3  1  0
  3  4  3  0
  4  5  1  0
  5  6  3  0
  6  7  1  0
  7  8  3  0
  8  9  1  0
  9 10  3  0
 10 11  1  0
 11 12  3  0
 12 13  1  0
 13 14  3  0
 14 15  1  0
 15 16  3  0
 16 17  1  0
 17 18  3  0
 18 19  1  0
 19 20  3  0
 20 21  1  0
 21 22  3  0
 22 23  1  0
 23 24  3  0
 24 25  1  0
 25 26  3  0
 26 27  1  0
 27 28  3  0
M  END
>  <Title>  (762) 
idABBJgen14

$$$$

     RDKit          2D

  8  7  0  0  0  0  0  0  0  0999 V2000
    0.0000    0.0000    0.0000 C   0  0  0  0  0  0  0  0  0  0  0  0
    1.2990    0.7500    0.0000 C   0  0  0  0  0  0  0  0  0  0  0  0
    2.5981   -0.0000    0.0000 N   0  0  0  0  0  0  0  0  0  0  0  0
    3.8971    0.7500    0.0000 C   0  0  0  0  0  0  0  0  0  0  0  0
    5.1962   -0.0000    0.0000 C   0  0  0  0  0  0  0  0  0  0  0  0
    6.4952    0.7500    0.0000 C   0  0  0  0  0  0  0  0  0  0  0  0
    7.7942   -0.0000    0.0000 C   0  0  0  0  0  0  0  0  0  0  0  0
    6.4952    2.2500    0.0000 C   0  0  0  0  0  0  0  0  0  0  0  0
  1  2  2  0
  2  3  1  0
  3  4  1  0
  4  5  1  0
  5  6  1  0
  6  7  1  0
  6  8  1  0
M  END
>  <Title>  (763) 
idABBKgen14

$$$$

     RDKit          2D

103104  0  0  0  0  0  0  0  0999 V2000
    2.0109    2.2494    0.0000 C   0  0  0  0  0  0  0  0  0  0  0  0
    3.4736    2.5817    0.0000 C   0  0  0  0  0  0  0  0  0  0  0  0
    3.9172    4.0146    0.0000 C   0  0  0  0  0  0  0  0  0  0  0  0
    5.3799    4.3469    0.0000 C   0  0  0  0  0  0  0  0  0  0  0  0
    5.1091    5.8223    0.0000 C   0  0  0  0  0  0  0  0  0  0  0  0
    4.9627    7.3151    0.0000 C   0  0  0  0  0  0  0  0  0  0  0  0
    4.9418    8.8150    0.0000 C   0  0  0  0  0  0  0  0  0  0  0  0
    5.0464   10.3113    0.0000 C   0  0  0  0  0  0  0  0  0  0  0  0
    5.2759   11.7937    0.0000 C   0  0  0  0  0  0  0  0  0  0  0  0
    5.6286   13.2516    0.0000 C   0  0  0  0  0  0  0  0  0  0  0  0
    6.1021   14.6749    0.0000 C   0  0  0  0  0  0  0  0  0  0  0  0
    6.6930   16.0536    0.0000 C   0  0  0  0  0  0  0  0  0  0  0  0
    7.3972   17.3780    0.0000 C   0  0  0  0  0  0  0  0  0  0  0  0
    8.2098   18.6389    0.0000 C   0  0  0  0  0  0  0  0  0  0  0  0
    9.1250   19.8273    0.0000 C   0  0  0  0  0  0  0  0  0  0  0  0
   10.1364   20.9350    0.0000 C   0  0  0  0  0  0  0  0  0  0  0  0
   11.2370   21.9542    0.0000 C   0  0  0  0  0  0  0  0  0  0  0  0
   12.4191   22.8777    0.0000 C   0  0  0  0  0  0  0  0  0  0  0  0
   13.6742   23.6990    0.0000 C   0  0  0  0  0  0  0  0  0  0  0  0
   14.9937   24.4124    0.0000 C   0  0  0  0  0  0  0  0  0  0  0  0
   16.3682   25.0130    0.0000 C   0  0  0  0  0  0  0  0  0  0  0  0
   17.7882   25.4964    0.0000 C   0  0  0  0  0  0  0  0  0  0  0  0
   19.2436   25.8592    0.0000 C   0  0  0  0  0  0  0  0  0  0  0  0
   20.7243   26.0991    0.0000 C   0  0  0  0  0  0  0  0  0  0  0  0
   22.2199   26.2141    0.0000 C   0  0  0  0  0  0  0  0  0  0  0  0
   23.7199   26.2037    0.0000 C   0  0  0  0  0  0  0  0  0  0  0  0
   25.2137   26.0677    0.0000 C   0  0  0  0  0  0  0  0  0  0  0  0
   26.6909   25.8073    0.0000 C   0  0  0  0  0  0  0  0  0  0  0  0
   28.1412   25.4241    0.0000 C   0  0  0  0  0  0  0  0  0  0  0  0
   29.5542   24.9209    0.0000 C   0  0  0  0  0  0  0  0  0  0  0  0
   30.9203   24.3013    0.0000 C   0  0  0  0  0  0  0  0  0  0  0  0
   32.2297   23.5695    0.0000 C   0  0  0  0  0  0  0  0  0  0  0  0
   33.4732   22.7307    0.0000 C   0  0  0  0  0  0  0  0  0  0  0  0
   34.6422   21.7908    0.0000 C   0  0  0  0  0  0  0  0  0  0  0  0
   35.7285   20.7563    0.0000 C   0  0  0  0  0  0  0  0  0  0  0  0
   36.7244   19.6346    0.0000 C   0  0  0  0  0  0  0  0  0  0  0  0
   37.6229   18.4335    0.0000 C   0  0  0  0  0  0  0  0  0  0  0  0
   38.4178   17.1615    0.0000 C   0  0  0  0  0  0  0  0  0  0  0  0
   39.1034   15.8273    0.0000 C   0  0  0  0  0  0  0  0  0  0  0  0
   39.6750   14.4405    0.0000 C   0  0  0  0  0  0  0  0  0  0  0  0
   40.1286   13.0107    0.0000 C   0  0  0  0  0  0  0  0  0  0  0  0
   40.4609   11.5480    0.0000 C   0  0  0  0  0  0  0  0  0  0  0  0
   40.6697   10.0626    0.0000 C   0  0  0  0  0  0  0  0  0  0  0  0
   40.7534    8.5650    0.0000 C   0  0  0  0  0  0  0  0  0  0  0  0
   40.7115    7.0655    0.0000 C   0  0  0  0  0  0  0  0  0  0  0  0
   40.5443    5.5749    0.0000 C   0  0  0  0  0  0  0  0  0  0  0  0
   40.2530    4.1035    0.0000 C   0  0  0  0  0  0  0  0  0  0  0  0
   39.8395    2.6616    0.0000 C   0  0  0  0  0  0  0  0  0  0  0  0
   39.3068    1.2593    0.0000 C   0  0  0  0  0  0  0  0  0  0  0  0
   38.6587   -0.0934    0.0000 C   0  0  0  0  0  0  0  0  0  0  0  0
   37.8997   -1.3872    0.0000 C   0  0  0  0  0  0  0  0  0  0  0  0
   37.0350   -2.6129    0.0000 C   0  0  0  0  0  0  0  0  0  0  0  0
   36.0708   -3.7620    0.0000 C   0  0  0  0  0  0  0  0  0  0  0  0
   35.0139   -4.8263    0.0000 C   0  0  0  0  0  0  0  0  0  0  0  0
   33.8716   -5.7985    0.0000 C   0  0  0  0  0  0  0  0  0  0  0  0
   32.6519   -6.6717    0.0000 C   0  0  0  0  0  0  0  0  0  0  0  0
   31.3635   -7.4398    0.0000 C   0  0  0  0  0  0  0  0  0  0  0  0
   30.0153   -8.0973    0.0000 C   0  0  0  0  0  0  0  0  0  0  0  0
   28.6168   -8.6398    0.0000 C   0  0  0  0  0  0  0  0  0  0  0  0
   27.1778   -9.0633    0.0000 C   0  0  0  0  0  0  0  0  0  0  0  0
   25.7085   -9.3649    0.0000 C   0  0  0  0  0  0  0  0  0  0  0  0
   24.2190   -9.5425    0.0000 C   0  0  0  0  0  0  0  0  0  0  0  0
   22.7199   -9.5948    0.0000 C   0  0  0  0  0  0  0  0  0  0  0  0
   21.2217   -9.5216    0.0000 C   0  0  0  0  0  0  0  0  0  0  0  0
   19.7349   -9.3232    0.0000 C   0  0  0  0  0  0  0  0  0  0  0  0
   18.2699   -9.0011    0.0000 C   0  0  0  0  0  0  0  0  0  0  0  0
   16.8370   -8.5575    0.0000 C   0  0  0  0  0  0  0  0  0  0  0  0
   15.4462   -7.9956    0.0000 C   0  0  0  0  0  0  0  0  0  0  0  0
   14.1073   -7.3193    0.0000 C   0  0  0  0  0  0  0  0  0  0  0  0
   12.8297   -6.5333    0.0000 C   0  0  0  0  0  0  0  0  0  0  0  0
   11.6224   -5.6432    0.0000 C   0  0  0  0  0  0  0  0  0  0  0  0
   10.4938   -4.6551    0.0000 C   0  0  0  0  0  0  0  0  0  0  0  0
    9.4518   -3.5761    0.0000 C   0  0  0  0  0  0  0  0  0  0  0  0
    8.5037   -2.4137    0.0000 C   0  0  0  0  0  0  0  0  0  0  0  0
    7.6563   -1.1761    0.0000 C   0  0  0  0  0  0  0  0  0  0  0  0
    6.9154    0.1282    0.0000 C   0  0  0  0  0  0  0  0  0  0  0  0
    6.2862    1.4899    0.0000 C   0  0  0  0  0  0  0  0  0  0  0  0
    5.7603   -0.0000    0.0000 C   0  0  0  0  0  0  0  0  0  0  0  0
    5.6051   -1.3284    0.0000 C   0  0  0  0  0  0  0  0  0  0  0  0
    5.1476   -2.5852    0.0000 C   0  0  0  0  0  0  0  0  0  0  0  0
    4.4127   -3.7027    0.0000 C   0  0  0  0  0  0  0  0  0  0  0  0
    3.4398   -4.6205    0.0000 C   0  0  0  0  0  0  0  0  0  0  0  0
    2.2816   -5.2892    0.0000 C   0  0  0  0  0  0  0  0  0  0  0  0
    1.0003   -5.6728    0.0000 C   0  0  0  0  0  0  0  0  0  0  0  0
   -0.3349   -5.7506    0.0000 C   0  0  0  0  0  0  0  0  0  0  0  0
   -1.6521   -5.5183    0.0000 C   0  0  0  0  0  0  0  0  0  0  0  0
   -2.8802   -4.9886    0.0000 C   0  0  0  0  0  0  0  0  0  0  0  0
   -3.9530   -4.1899    0.0000 C   0  0  0  0  0  0  0  0  0  0  0  0
   -4.8127   -3.1654    0.0000 C   0  0  0  0  0  0  0  0  0  0  0  0
   -5.4130   -1.9702    0.0000 C   0  0  0  0  0  0  0  0  0  0  0  0
   -5.7214   -0.6687    0.0000 C   0  0  0  0  0  0  0  0  0  0  0  0
   -5.7214    0.6687    0.0000 C   0  0  0  0  0  0  0  0  0  0  0  0
   -5.4130    1.9702    0.0000 C   0  0  0  0  0  0  0  0  0  0  0  0
   -4.8127    3.1654    0.0000 C   0  0  0  0  0  0  0  0  0  0  0  0
   -3.9530    4.1899    0.0000 C   0  0  0  0  0  0  0  0  0  0  0  0
   -2.8802    4.9886    0.0000 C   0  0  0  0  0  0  0  0  0  0  0  0
   -1.6521    5.5183    0.0000 C   0  0  0  0  0  0  0  0  0  0  0  0
   -0.3349    5.7506    0.0000 C   0  0  0  0  0  0  0  0  0  0  0  0
    1.0003    5.6728    0.0000 C   0  0  0  0  0  0  0  0  0  0  0  0
    2.2816    5.2892    0.0000 C   0  0  0  0  0  0  0  0  0  0  0  0
    3.4398    4.6205    0.0000 C   0  0  0  0  0  0  0  0  0  0  0  0
    4.4127    3.7027    0.0000 C   0  0  0  0  0  0  0  0  0  0  0  0
    5.7732    2.8994    0.0000 C   0  0  0  0  0  0  0  0  0  0  0  0
  1  2  1  0
  2  3  1  0
  3  4  1  0
  4  5  1  0
  5  6  1  0
  6  7  1  0
  7  8  1  0
  8  9  1  0
  9 10  1  0
 10 11  1  0
 11 12  1  0
 12 13  1  0
 13 14  1  0
 14 15  1  0
 15 16  1  0
 16 17  1  0
 17 18  1  0
 18 19  1  0
 19 20  1  0
 20 21  1  0
 21 22  1  0
 22 23  1  0
 23 24  1  0
 24 25  1  0
 25 26  1  0
 26 27  1  0
 27 28  1  0
 28 29  1  0
 29 30  1  0
 30 31  1  0
 31 32  1  0
 32 33  1  0
 33 34  1  0
 34 35  1  0
 35 36  1  0
 36 37  1  0
 37 38  1  0
 38 39  1  0
 39 40  1  0
 40 41  1  0
 41 42  1  0
 42 43  1  0
 43 44  1  0
 44 45  1  0
 45 46  1  0
 46 47  1  0
 47 48  1  0
 48 49  1  0
 49 50  1  0
 50 51  1  0
 51 52  1  0
 52 53  1  0
 53 54  1  0
 54 55  1  0
 55 56  1  0
 56 57  1  0
 57 58  1  0
 58 59  1  0
 59 60  1  0
 60 61  1  0
 61 62  1  0
 62 63  1  0
 63 64  1  0
 64 65  1  0
 65 66  1  0
 66 67  1  0
 67 68  1  0
 68 69  1  0
 69 70  1  0
 70 71  1  0
 71 72  1  0
 72 73  1  0
 73 74  1  0
 74 75  1  0
 75 76  1  0
 76 77  1  0
 77 78  1  0
 78 79  1  0
 79 80  1  0
 80 81  2  0
 81 82  1  0
 82 83  2  0
 83 84  1  0
 84 85  2  0
 85 86  1  0
 86 87  2  0
 87 88  1  0
 88 89  2  0
 89 90  1  0
 90 91  2  0
 91 92  1  0
 92 93  2  0
 93 94  1  0
 94 95  2  0
 95 96  1  0
 96 97  2  0
 97 98  1  0
 98 99  2  0
 99100  1  0
100101  2  0
101102  1  0
102103  2  0
103  4  1  0
103 77  1  0
M  END
>  <Title>  (764) 
idABBLgen14

$$$$

     RDKit          2D

  5  4  0  0  0  0  0  0  0  0999 V2000
    0.0000    0.0000    0.0000 C   0  0  0  0  0  0  0  0  0  0  0  0
    1.2990    0.7500    0.0000 C   0  0  0  0  0  0  0  0  0  0  0  0
    2.5981   -0.0000    0.0000 C   0  0  0  0  0  0  0  0  0  0  0  0
    1.2990    2.2500    0.0000 C   0  0  0  0  0  0  0  0  0  0  0  0
    2.5981    3.0000    0.0000 O   0  0  0  0  0  0  0  0  0  0  0  0
  1  2  1  0
  2  3  1  0
  2  4  1  0
  4  5  1  0
M  END
>  <Title>  (765) 
idABBMgen14

$$$$

     RDKit          2D

 35 39  0  0  0  0  0  0  0  0999 V2000
   -3.1476   -2.1380    0.0000 C   0  0  0  0  0  0  0  0  0  0  0  0
   -1.6852   -2.4718    0.0000 C   0  0  0  0  0  0  0  0  0  0  0  0
   -1.3515   -3.9342    0.0000 C   0  0  0  0  0  0  0  0  0  0  0  0
   -0.0000   -4.5850    0.0000 C   0  0  0  0  0  0  0  0  0  0  0  0
    1.3515   -3.9342    0.0000 C   0  0  0  0  0  0  0  0  0  0  0  0
    1.6852   -2.4718    0.0000 C   0  0  0  0  0  0  0  0  0  0  0  0
    3.1476   -2.1380    0.0000 C   0  0  0  0  0  0  0  0  0  0  0  0
    3.5898   -0.7046    0.0000 O   0  0  0  0  0  0  0  0  0  0  0  0
    4.1679   -3.2376    0.0000 N   0  0  0  0  0  0  0  0  0  0  0  0
    5.6303   -2.9038    0.0000 C   0  0  0  0  0  0  0  0  0  0  0  0
    6.2198   -1.5245    0.0000 N   0  0  0  0  0  0  0  0  0  0  0  0
    7.7138   -1.6590    0.0000 N   0  0  0  0  0  0  0  0  0  0  0  0
    8.0476   -3.1214    0.0000 N   0  0  0  0  0  0  0  0  0  0  0  0
    6.7599   -3.8907    0.0000 N   0  0  0  0  0  0  0  0  0  0  0  0
    6.6254   -5.3847    0.0000 N   0  0  0  0  0  0  0  0  0  0  0  0
    7.7550   -6.3716    0.0000 C   0  0  0  0  0  0  0  0  0  0  0  0
    7.1655   -7.7509    0.0000 C   0  0  0  0  0  0  0  0  0  0  0  0
    5.6715   -7.6164    0.0000 N   0  0  0  0  0  0  0  0  0  0  0  0
    4.6846   -8.7460    0.0000 C   0  0  0  0  0  0  0  0  0  0  0  0
    5.1694  -10.1655    0.0000 O   0  0  0  0  0  0  0  0  0  0  0  0
    3.2129   -8.4561    0.0000 N   0  0  0  0  0  0  0  0  0  0  0  0
    2.2260   -9.5857    0.0000 C   0  0  0  0  0  0  0  0  0  0  0  0
    0.7543   -9.2959    0.0000 N   0  0  0  0  0  0  0  0  0  0  0  0
   -0.2326  -10.4255    0.0000 N   0  0  0  0  0  0  0  0  0  0  0  0
    0.2522  -11.8450    0.0000 N   0  0  0  0  0  0  0  0  0  0  0  0
    1.7239  -12.1348    0.0000 N   0  0  0  0  0  0  0  0  0  0  0  0
    2.7108  -11.0052    0.0000 N   0  0  0  0  0  0  0  0  0  0  0  0
    5.3378   -6.1540    0.0000 C   0  0  0  0  0  0  0  0  0  0  0  0
    3.9585   -5.5645    0.0000 O   0  0  0  0  0  0  0  0  0  0  0  0
    0.7500   -1.2990    0.0000 C   0  0  0  0  0  0  0  0  0  0  0  0
    1.5000    0.0000    0.0000 C   0  0  0  0  0  0  0  0  0  0  0  0
    0.7500    1.2990    0.0000 C   0  0  0  0  0  0  0  0  0  0  0  0
   -0.7500    1.2990    0.0000 C   0  0  0  0  0  0  0  0  0  0  0  0
   -1.5000    0.0000    0.0000 C   0  0  0  0  0  0  0  0  0  0  0  0
   -0.7500   -1.2990    0.0000 C   0  0  0  0  0  0  0  0  0  0  0  0
  1  2  1  0
  2  3  1  0
  3  4  2  0
  4  5  1  0
  5  6  2  0
  6  7  1  0
  7  8  2  0
  7  9  1  0
  9 10  1  0
 10 11  2  0
 11 12  1  0
 12 13  2  0
 13 14  1  0
 14 15  1  0
 15 16  1  0
 16 17  1  0
 17 18  1  0
 18 19  1  0
 19 20  2  0
 19 21  1  0
 21 22  1  0
 22 23  2  0
 23 24  1  0
 24 25  2  0
 25 26  1  0
 26 27  2  0
 18 28  1  0
 28 29  2  0
  6 30  1  0
 30 31  2  0
 31 32  1  0
 32 33  2  0
 33 34  1  0
 34 35  2  0
 35  2  1  0
 14 10  1  0
 28 15  1  0
 35 30  1  0
 27 22  1  0
M  END
>  <Title>  (766) 
idABBNgen14

$$$$

     RDKit          2D

  6  5  0  0  0  0  0  0  0  0999 V2000
    0.0000    0.0000    0.0000 C   0  0  0  0  0  0  0  0  0  0  0  0
   -0.0000   -1.5000    0.0000 C   0  0  0  0  0  0  0  0  0  0  0  0
   -0.0000   -3.0000    0.0000 C   0  0  0  0  0  0  0  0  0  0  0  0
    1.2990   -3.7500    0.0000 C   0  0  0  0  0  0  0  0  0  0  0  0
   -1.2990   -3.7500    0.0000 N   0  0  0  0  0  0  0  0  0  0  0  0
   -2.5981   -3.0000    0.0000 C   0  0  0  0  0  0  0  0  0  0  0  0
  1  2  3  0
  2  3  1  0
  3  4  1  0
  3  5  1  0
  5  6  1  0
M  END
>  <Title>  (767) 
idABBOgen14

$$$$

     RDKit          2D

 11 12  0  0  0  0  0  0  0  0999 V2000
   -2.9520   -4.6564    0.0000 C   0  0  0  0  0  0  0  0  0  0  0  0
   -2.6401   -3.1891    0.0000 C   0  0  0  0  0  0  0  0  0  0  0  0
   -1.2135   -2.7256    0.0000 C   0  0  0  0  0  0  0  0  0  0  0  0
   -0.0000   -3.6073    0.0000 C   0  0  0  0  0  0  0  0  0  0  0  0
    1.2135   -2.7256    0.0000 C   0  0  0  0  0  0  0  0  0  0  0  0
    0.7500   -1.2990    0.0000 C   0  0  0  0  0  0  0  0  0  0  0  0
    1.5000    0.0000    0.0000 C   0  0  0  0  0  0  0  0  0  0  0  0
    0.7500    1.2990    0.0000 C   0  0  0  0  0  0  0  0  0  0  0  0
   -0.7500    1.2990    0.0000 C   0  0  0  0  0  0  0  0  0  0  0  0
   -1.5000    0.0000    0.0000 C   0  0  0  0  0  0  0  0  0  0  0  0
   -0.7500   -1.2990    0.0000 C   0  0  0  0  0  0  0  0  0  0  0  0
  1  2  2  0
  2  3  1  0
  3  4  1  0
  4  5  1  0
  5  6  1  0
  6  7  2  0
  7  8  1  0
  8  9  2  0
  9 10  1  0
 10 11  2  0
 11  3  1  0
 11  6  1  0
M  END
>  <Title>  (768) 
idABBPgen14

$$$$

     RDKit          2D

 14 13  0  0  0  0  0  0  0  0999 V2000
    0.0000    0.0000    0.0000 C   0  0  0  0  0  0  0  0  0  0  0  0
    1.2990    0.7500    0.0000 C   0  0  0  0  0  0  0  0  0  0  0  0
    2.5981   -0.0000    0.0000 C   0  0  0  0  0  0  0  0  0  0  0  0
    3.8971    0.7500    0.0000 C   0  0  0  0  0  0  0  0  0  0  0  0
    5.1962   -0.0000    0.0000 C   0  0  0  0  0  0  0  0  0  0  0  0
    5.1962   -1.5000    0.0000 O   0  0  0  0  0  0  0  0  0  0  0  0
    6.4952    0.7500    0.0000 N   0  0  0  0  0  0  0  0  0  0  0  0
    7.7942   -0.0000    0.0000 C   0  0  0  0  0  0  0  0  0  0  0  0
    9.0933    0.7500    0.0000 C   0  0  0  0  0  0  0  0  0  0  0  0
    7.7942   -1.5000    0.0000 C   0  0  0  0  0  0  0  0  0  0  0  0
    9.0933   -2.2500    0.0000 C   0  0  0  0  0  0  0  0  0  0  0  0
    9.0933   -3.7500    0.0000 C   0  0  0  0  0  0  0  0  0  0  0  0
   10.3923   -1.5000    0.0000 C   0  0  0  0  0  0  0  0  0  0  0  0
   11.6913   -2.2500    0.0000 C   0  0  0  0  0  0  0  0  0  0  0  0
  1  2  1  0
  2  3  1  0
  3  4  1  0
  4  5  1  0
  5  6  2  0
  5  7  1  0
  7  8  1  0
  8  9  1  0
  8 10  1  0
 10 11  1  0
 11 12  1  0
 11 13  1  0
 13 14  1  0
M  END
>  <Title>  (769) 
idABBQgen14

$$$$

     RDKit          2D

 14 14  0  0  0  0  0  0  0  0999 V2000
    8.2500   -3.8971    0.0000 C   0  0  0  0  0  0  0  0  0  0  0  0
    7.5000   -2.5981    0.0000 C   0  0  0  0  0  0  0  0  0  0  0  0
    8.2500   -1.2990    0.0000 C   0  0  0  0  0  0  0  0  0  0  0  0
    6.0000   -2.5981    0.0000 N   0  0  0  0  0  0  0  0  0  0  0  0
    5.2500   -1.2990    0.0000 C   0  0  0  0  0  0  0  0  0  0  0  0
    6.0000    0.0000    0.0000 O   0  0  0  0  0  0  0  0  0  0  0  0
    3.7500   -1.2990    0.0000 C   0  0  0  0  0  0  0  0  0  0  0  0
    3.0000    0.0000    0.0000 C   0  0  0  0  0  0  0  0  0  0  0  0
    1.5000    0.0000    0.0000 C   0  0  0  0  0  0  0  0  0  0  0  0
    0.7500   -1.2990    0.0000 C   0  0  0  0  0  0  0  0  0  0  0  0
   -0.7500   -1.2990    0.0000 C   0  0  0  0  0  0  0  0  0  0  0  0
   -1.5000    0.0000    0.0000 C   0  0  0  0  0  0  0  0  0  0  0  0
   -0.7500    1.2990    0.0000 N   0  0  0  0  0  0  0  0  0  0  0  0
    0.7500    1.2990    0.0000 C   0  0  0  0  0  0  0  0  0  0  0  0
  1  2  1  0
  2  3  1  0
  2  4  1  0
  4  5  1  0
  5  6  2  0
  5  7  1  0
  7  8  1  0
  8  9  1  0
  9 10  2  0
 10 11  1  0
 11 12  2  0
 12 13  1  0
 13 14  2  0
 14  9  1  0
M  END
>  <Title>  (770) 
idABBRgen14

$$$$

     RDKit          2D

115116  0  0  0  0  0  0  0  0999 V2000
   16.6573   -4.5634    0.0000 C   0  0  0  0  0  0  0  0  0  0  0  0
   17.4507   -4.4861    0.0000 C   0  0  0  0  0  0  0  0  0  0  0  0
   17.7072   -5.9640    0.0000 C   0  0  0  0  0  0  0  0  0  0  0  0
   18.1811   -7.3872    0.0000 C   0  0  0  0  0  0  0  0  0  0  0  0
   18.8618   -8.7239    0.0000 C   0  0  0  0  0  0  0  0  0  0  0  0
   19.7341   -9.9441    0.0000 C   0  0  0  0  0  0  0  0  0  0  0  0
   20.7786  -11.0207    0.0000 C   0  0  0  0  0  0  0  0  0  0  0  0
   21.9718  -11.9297    0.0000 C   0  0  0  0  0  0  0  0  0  0  0  0
   23.2872  -12.6506    0.0000 C   0  0  0  0  0  0  0  0  0  0  0  0
   24.6954  -13.1674    0.0000 C   0  0  0  0  0  0  0  0  0  0  0  0
   26.1648  -13.4686    0.0000 C   0  0  0  0  0  0  0  0  0  0  0  0
   27.6627  -13.5474    0.0000 C   0  0  0  0  0  0  0  0  0  0  0  0
   29.1557  -13.4021    0.0000 C   0  0  0  0  0  0  0  0  0  0  0  0
   30.6103  -13.0359    0.0000 C   0  0  0  0  0  0  0  0  0  0  0  0
   31.9941  -12.4569    0.0000 C   0  0  0  0  0  0  0  0  0  0  0  0
   33.2761  -11.6782    0.0000 C   0  0  0  0  0  0  0  0  0  0  0  0
   34.4278  -10.7172    0.0000 C   0  0  0  0  0  0  0  0  0  0  0  0
   35.4233   -9.5952    0.0000 C   0  0  0  0  0  0  0  0  0  0  0  0
   36.2405   -8.3373    0.0000 C   0  0  0  0  0  0  0  0  0  0  0  0
   36.8612   -6.9717    0.0000 C   0  0  0  0  0  0  0  0  0  0  0  0
   37.2713   -5.5289    0.0000 C   0  0  0  0  0  0  0  0  0  0  0  0
   37.4618   -4.0411    0.0000 C   0  0  0  0  0  0  0  0  0  0  0  0
   37.4285   -2.5414    0.0000 C   0  0  0  0  0  0  0  0  0  0  0  0
   37.1720   -1.0635    0.0000 C   0  0  0  0  0  0  0  0  0  0  0  0
   36.6981    0.3597    0.0000 C   0  0  0  0  0  0  0  0  0  0  0  0
   36.0174    1.6963    0.0000 C   0  0  0  0  0  0  0  0  0  0  0  0
   35.1450    2.9166    0.0000 C   0  0  0  0  0  0  0  0  0  0  0  0
   34.1006    3.9932    0.0000 C   0  0  0  0  0  0  0  0  0  0  0  0
   32.9073    4.9021    0.0000 C   0  0  0  0  0  0  0  0  0  0  0  0
   31.5919    5.6230    0.0000 C   0  0  0  0  0  0  0  0  0  0  0  0
   30.1838    6.1399    0.0000 C   0  0  0  0  0  0  0  0  0  0  0  0
   28.7143    6.4411    0.0000 C   0  0  0  0  0  0  0  0  0  0  0  0
   27.2164    6.5199    0.0000 C   0  0  0  0  0  0  0  0  0  0  0  0
   25.7235    6.3745    0.0000 C   0  0  0  0  0  0  0  0  0  0  0  0
   24.2689    6.0083    0.0000 C   0  0  0  0  0  0  0  0  0  0  0  0
   22.8851    5.4294    0.0000 C   0  0  0  0  0  0  0  0  0  0  0  0
   21.6030    4.6507    0.0000 C   0  0  0  0  0  0  0  0  0  0  0  0
   20.4514    3.6896    0.0000 C   0  0  0  0  0  0  0  0  0  0  0  0
   19.4558    2.5676    0.0000 C   0  0  0  0  0  0  0  0  0  0  0  0
   18.6386    1.3098    0.0000 C   0  0  0  0  0  0  0  0  0  0  0  0
   18.0180   -0.0558    0.0000 C   0  0  0  0  0  0  0  0  0  0  0  0
   17.6078   -1.4986    0.0000 C   0  0  0  0  0  0  0  0  0  0  0  0
   16.9715   -0.0000    0.0000 C   0  0  0  0  0  0  0  0  0  0  0  0
   16.9104    1.4393    0.0000 C   0  0  0  0  0  0  0  0  0  0  0  0
   16.7274    2.8682    0.0000 C   0  0  0  0  0  0  0  0  0  0  0  0
   16.4239    4.2764    0.0000 C   0  0  0  0  0  0  0  0  0  0  0  0
   16.0021    5.6539    0.0000 C   0  0  0  0  0  0  0  0  0  0  0  0
   15.4649    6.9906    0.0000 C   0  0  0  0  0  0  0  0  0  0  0  0
   14.8164    8.2769    0.0000 C   0  0  0  0  0  0  0  0  0  0  0  0
   14.0611    9.5036    0.0000 C   0  0  0  0  0  0  0  0  0  0  0  0
   13.2044   10.6618    0.0000 C   0  0  0  0  0  0  0  0  0  0  0  0
   12.2527   11.7432    0.0000 C   0  0  0  0  0  0  0  0  0  0  0  0
   11.2126   12.7400    0.0000 C   0  0  0  0  0  0  0  0  0  0  0  0
   10.0918   13.6450    0.0000 C   0  0  0  0  0  0  0  0  0  0  0  0
    8.8983   14.4517    0.0000 C   0  0  0  0  0  0  0  0  0  0  0  0
    7.6406   15.1543    0.0000 C   0  0  0  0  0  0  0  0  0  0  0  0
    6.3279   15.7477    0.0000 C   0  0  0  0  0  0  0  0  0  0  0  0
    4.9696   16.2276    0.0000 C   0  0  0  0  0  0  0  0  0  0  0  0
    3.5755   16.5906    0.0000 C   0  0  0  0  0  0  0  0  0  0  0  0
    2.1557   16.8340    0.0000 C   0  0  0  0  0  0  0  0  0  0  0  0
    0.7203   16.9562    0.0000 C   0  0  0  0  0  0  0  0  0  0  0  0
   -0.7203   16.9562    0.0000 C   0  0  0  0  0  0  0  0  0  0  0  0
   -2.1557   16.8340    0.0000 C   0  0  0  0  0  0  0  0  0  0  0  0
   -3.5755   16.5906    0.0000 C   0  0  0  0  0  0  0  0  0  0  0  0
   -4.9696   16.2276    0.0000 C   0  0  0  0  0  0  0  0  0  0  0  0
   -6.3279   15.7477    0.0000 C   0  0  0  0  0  0  0  0  0  0  0  0
   -7.6406   15.1543    0.0000 C   0  0  0  0  0  0  0  0  0  0  0  0
   -8.8983   14.4517    0.0000 C   0  0  0  0  0  0  0  0  0  0  0  0
  -10.0918   13.6450    0.0000 C   0  0  0  0  0  0  0  0  0  0  0  0
  -11.2126   12.7400    0.0000 C   0  0  0  0  0  0  0  0  0  0  0  0
  -12.2527   11.7432    0.0000 C   0  0  0  0  0  0  0  0  0  0  0  0
  -13.2044   10.6618    0.0000 C   0  0  0  0  0  0  0  0  0  0  0  0
  -14.0611    9.5036    0.0000 C   0  0  0  0  0  0  0  0  0  0  0  0
  -14.8164    8.2769    0.0000 C   0  0  0  0  0  0  0  0  0  0  0  0
  -15.4649    6.9906    0.0000 C   0  0  0  0  0  0  0  0  0  0  0  0
  -16.0021    5.6539    0.0000 C   0  0  0  0  0  0  0  0  0  0  0  0
  -16.4239    4.2764    0.0000 C   0  0  0  0  0  0  0  0  0  0  0  0
  -16.7274    2.8682    0.0000 C   0  0  0  0  0  0  0  0  0  0  0  0
  -16.9104    1.4393    0.0000 C   0  0  0  0  0  0  0  0  0  0  0  0
  -16.9715    0.0000    0.0000 C   0  0  0  0  0  0  0  0  0  0  0  0
  -16.9104   -1.4393    0.0000 C   0  0  0  0  0  0  0  0  0  0  0  0
  -16.7274   -2.8682    0.0000 C   0  0  0  0  0  0  0  0  0  0  0  0
  -16.4239   -4.2764    0.0000 C   0  0  0  0  0  0  0  0  0  0  0  0
  -16.0021   -5.6539    0.0000 C   0  0  0  0  0  0  0  0  0  0  0  0
  -15.4649   -6.9906    0.0000 C   0  0  0  0  0  0  0  0  0  0  0  0
  -14.8164   -8.2769    0.0000 C   0  0  0  0  0  0  0  0  0  0  0  0
  -14.0611   -9.5036    0.0000 C   0  0  0  0  0  0  0  0  0  0  0  0
  -13.2044  -10.6618    0.0000 C   0  0  0  0  0  0  0  0  0  0  0  0
  -12.2527  -11.7432    0.0000 C   0  0  0  0  0  0  0  0  0  0  0  0
  -11.2126  -12.7400    0.0000 C   0  0  0  0  0  0  0  0  0  0  0  0
  -10.0918  -13.6450    0.0000 C   0  0  0  0  0  0  0  0  0  0  0  0
   -8.8983  -14.4517    0.0000 C   0  0  0  0  0  0  0  0  0  0  0  0
   -7.6406  -15.1543    0.0000 C   0  0  0  0  0  0  0  0  0  0  0  0
   -6.3279  -15.7477    0.0000 C   0  0  0  0  0  0  0  0  0  0  0  0
   -4.9696  -16.2276    0.0000 C   0  0  0  0  0  0  0  0  0  0  0  0
   -3.5755  -16.5906    0.0000 C   0  0  0  0  0  0  0  0  0  0  0  0
   -2.1557  -16.8340    0.0000 C   0  0  0  0  0  0  0  0  0  0  0  0
   -0.7203  -16.9562    0.0000 C   0  0  0  0  0  0  0  0  0  0  0  0
    0.7203  -16.9562    0.0000 C   0  0  0  0  0  0  0  0  0  0  0  0
    2.1557  -16.8340    0.0000 C   0  0  0  0  0  0  0  0  0  0  0  0
    3.5755  -16.5906    0.0000 C   0  0  0  0  0  0  0  0  0  0  0  0
    4.9696  -16.2276    0.0000 C   0  0  0  0  0  0  0  0  0  0  0  0
    6.3279  -15.7477    0.0000 C   0  0  0  0  0  0  0  0  0  0  0  0
    7.6406  -15.1543    0.0000 C   0  0  0  0  0  0  0  0  0  0  0  0
    8.8983  -14.4517    0.0000 C   0  0  0  0  0  0  0  0  0  0  0  0
   10.0918  -13.6450    0.0000 C   0  0  0  0  0  0  0  0  0  0  0  0
   11.2126  -12.7400    0.0000 C   0  0  0  0  0  0  0  0  0  0  0  0
   12.2527  -11.7432    0.0000 C   0  0  0  0  0  0  0  0  0  0  0  0
   13.2044  -10.6618    0.0000 C   0  0  0  0  0  0  0  0  0  0  0  0
   14.0611   -9.5036    0.0000 C   0  0  0  0  0  0  0  0  0  0  0  0
   14.8164   -8.2769    0.0000 C   0  0  0  0  0  0  0  0  0  0  0  0
   15.4649   -6.9906    0.0000 C   0  0  0  0  0  0  0  0  0  0  0  0
   16.0021   -5.6539    0.0000 C   0  0  0  0  0  0  0  0  0  0  0  0
   16.4239   -4.2764    0.0000 C   0  0  0  0  0  0  0  0  0  0  0  0
   17.4173   -2.9865    0.0000 C   0  0  0  0  0  0  0  0  0  0  0  0
  1  2  1  0
  2  3  1  0
  3  4  1  0
  4  5  1  0
  5  6  1  0
  6  7  1  0
  7  8  1  0
  8  9  1  0
  9 10  1  0
 10 11  1  0
 11 12  1  0
 12 13  1  0
 13 14  1  0
 14 15  1  0
 15 16  1  0
 16 17  1  0
 17 18  1  0
 18 19  1  0
 19 20  1  0
 20 21  1  0
 21 22  1  0
 22 23  1  0
 23 24  1  0
 24 25  1  0
 25 26  1  0
 26 27  1  0
 27 28  1  0
 28 29  1  0
 29 30  1  0
 30 31  1  0
 31 32  1  0
 32 33  1  0
 33 34  1  0
 34 35  1  0
 35 36  1  0
 36 37  1  0
 37 38  1  0
 38 39  1  0
 39 40  1  0
 40 41  1  0
 41 42  1  0
 42 43  1  0
 43 44  1  0
 44 45  1  0
 45 46  1  0
 46 47  1  0
 47 48  1  0
 48 49  1  0
 49 50  1  0
 50 51  1  0
 51 52  1  0
 52 53  1  0
 53 54  1  0
 54 55  1  0
 55 56  1  0
 56 57  1  0
 57 58  1  0
 58 59  1  0
 59 60  1  0
 60 61  1  0
 61 62  1  0
 62 63  1  0
 63 64  1  0
 64 65  1  0
 65 66  1  0
 66 67  1  0
 67 68  1  0
 68 69  1  0
 69 70  1  0
 70 71  1  0
 71 72  1  0
 72 73  1  0
 73 74  1  0
 74 75  1  0
 75 76  1  0
 76 77  1  0
 77 78  1  0
 78 79  1  0
 79 80  1  0
 80 81  1  0
 81 82  1  0
 82 83  1  0
 83 84  1  0
 84 85  1  0
 85 86  1  0
 86 87  1  0
 87 88  1  0
 88 89  1  0
 89 90  1  0
 90 91  1  0
 91 92  1  0
 92 93  1  0
 93 94  1  0
 94 95  1  0
 95 96  1  0
 96 97  1  0
 97 98  1  0
 98 99  1  0
 99100  1  0
100101  1  0
101102  1  0
102103  1  0
103104  1  0
104105  1  0
105106  1  0
106107  1  0
107108  1  0
108109  2  0
109110  1  0
110111  2  0
111112  1  0
112113  2  0
113114  1  0
114115  2  0
115  2  1  0
115 42  1  0
M  END
>  <Title>  (771) 
idABBSgen14

$$$$

     RDKit          2D

 38 42  0  0  0  0  0  0  0  0999 V2000
   -3.1771   -1.2990    0.0000 C   0  0  0  0  0  0  0  0  0  0  0  0
   -1.9635   -2.1807    0.0000 C   0  0  0  0  0  0  0  0  0  0  0  0
   -2.4271   -3.6073    0.0000 C   0  0  0  0  0  0  0  0  0  0  0  0
   -1.9635   -5.0339    0.0000 C   0  0  0  0  0  0  0  0  0  0  0  0
   -0.7500   -5.9156    0.0000 C   0  0  0  0  0  0  0  0  0  0  0  0
    0.7500   -5.9156    0.0000 C   0  0  0  0  0  0  0  0  0  0  0  0
    1.9635   -5.0339    0.0000 C   0  0  0  0  0  0  0  0  0  0  0  0
    2.4271   -3.6073    0.0000 C   0  0  0  0  0  0  0  0  0  0  0  0
    1.9635   -2.1807    0.0000 C   0  0  0  0  0  0  0  0  0  0  0  0
    3.1771   -1.2990    0.0000 C   0  0  0  0  0  0  0  0  0  0  0  0
    3.0203    0.1927    0.0000 O   0  0  0  0  0  0  0  0  0  0  0  0
    4.5474   -1.9091    0.0000 N   0  0  0  0  0  0  0  0  0  0  0  0
    5.7609   -1.0275    0.0000 C   0  0  0  0  0  0  0  0  0  0  0  0
    5.7609    0.4725    0.0000 N   0  0  0  0  0  0  0  0  0  0  0  0
    7.1875    0.9361    0.0000 N   0  0  0  0  0  0  0  0  0  0  0  0
    8.0692   -0.2775    0.0000 N   0  0  0  0  0  0  0  0  0  0  0  0
    7.1875   -1.4910    0.0000 N   0  0  0  0  0  0  0  0  0  0  0  0
    7.6510   -2.9176    0.0000 N   0  0  0  0  0  0  0  0  0  0  0  0
    9.0776   -3.3811    0.0000 C   0  0  0  0  0  0  0  0  0  0  0  0
    9.0776   -4.8811    0.0000 C   0  0  0  0  0  0  0  0  0  0  0  0
    7.6510   -5.3446    0.0000 N   0  0  0  0  0  0  0  0  0  0  0  0
    7.1875   -6.7712    0.0000 C   0  0  0  0  0  0  0  0  0  0  0  0
    8.1912   -7.8859    0.0000 O   0  0  0  0  0  0  0  0  0  0  0  0
    5.7203   -7.0831    0.0000 N   0  0  0  0  0  0  0  0  0  0  0  0
    5.2567   -8.5097    0.0000 C   0  0  0  0  0  0  0  0  0  0  0  0
    3.7895   -8.8215    0.0000 N   0  0  0  0  0  0  0  0  0  0  0  0
    3.3260  -10.2481    0.0000 N   0  0  0  0  0  0  0  0  0  0  0  0
    4.3297  -11.3628    0.0000 N   0  0  0  0  0  0  0  0  0  0  0  0
    5.7969  -11.0510    0.0000 N   0  0  0  0  0  0  0  0  0  0  0  0
    6.2604   -9.6244    0.0000 N   0  0  0  0  0  0  0  0  0  0  0  0
    6.7693   -4.1311    0.0000 C   0  0  0  0  0  0  0  0  0  0  0  0
    5.2693   -4.1311    0.0000 O   0  0  0  0  0  0  0  0  0  0  0  0
    0.7500   -1.2990    0.0000 C   0  0  0  0  0  0  0  0  0  0  0  0
    1.5000    0.0000    0.0000 C   0  0  0  0  0  0  0  0  0  0  0  0
    0.7500    1.2990    0.0000 C   0  0  0  0  0  0  0  0  0  0  0  0
   -0.7500    1.2990    0.0000 C   0  0  0  0  0  0  0  0  0  0  0  0
   -1.5000    0.0000    0.0000 C   0  0  0  0  0  0  0  0  0  0  0  0
   -0.7500   -1.2990    0.0000 C   0  0  0  0  0  0  0  0  0  0  0  0
  1  2  1  0
  2  3  1  0
  3  4  2  0
  4  5  1  0
  5  6  1  0
  6  7  1  0
  7  8  1  0
  8  9  1  0
  9 10  1  0
 10 11  2  0
 10 12  1  0
 12 13  1  0
 13 14  2  0
 14 15  1  0
 15 16  2  0
 16 17  1  0
 17 18  1  0
 18 19  1  0
 19 20  1  0
 20 21  1  0
 21 22  1  0
 22 23  2  0
 22 24  1  0
 24 25  1  0
 25 26  2  0
 26 27  1  0
 27 28  2  0
 28 29  1  0
 29 30  2  0
 21 31  1  0
 31 32  2  0
  9 33  1  0
 33 34  2  0
 34 35  1  0
 35 36  2  0
 36 37  1  0
 37 38  2  0
 38  2  1  0
 17 13  1  0
 31 18  1  0
 38 33  1  0
 30 25  1  0
M  END
>  <Title>  (772) 
idABBTgen14

$$$$

     RDKit          2D

  7  7  0  0  0  0  0  0  0  0999 V2000
    3.0000    0.0000    0.0000 C   0  0  0  0  0  0  0  0  0  0  0  0
    1.5000    0.0000    0.0000 C   0  0  0  0  0  0  0  0  0  0  0  0
    0.7500   -1.2990    0.0000 C   0  0  0  0  0  0  0  0  0  0  0  0
   -0.7500   -1.2990    0.0000 C   0  0  0  0  0  0  0  0  0  0  0  0
   -1.5000    0.0000    0.0000 C   0  0  0  0  0  0  0  0  0  0  0  0
   -0.7500    1.2990    0.0000 C   0  0  0  0  0  0  0  0  0  0  0  0
    0.7500    1.2990    0.0000 C   0  0  0  0  0  0  0  0  0  0  0  0
  1  2  1  0
  2  3  1  0
  3  4  1  0
  4  5  2  0
  5  6  1  0
  6  7  1  0
  7  2  1  0
M  END
>  <Title>  (773) 
idABBUgen14

$$$$

     RDKit          2D

 37 42  0  0  0  0  0  0  0  0999 V2000
    2.3737   -6.1885    0.0000 C   0  0  0  0  0  0  0  0  0  0  0  0
    1.4095   -5.0395    0.0000 C   0  0  0  0  0  0  0  0  0  0  0  0
    2.1595   -3.7404    0.0000 N   0  0  0  0  0  0  0  0  0  0  0  0
    1.8991   -2.2632    0.0000 N   0  0  0  0  0  0  0  0  0  0  0  0
    3.1981   -1.5132    0.0000 N   0  0  0  0  0  0  0  0  0  0  0  0
    3.3549   -0.0214    0.0000 C   0  0  0  0  0  0  0  0  0  0  0  0
    4.8221    0.2904    0.0000 C   0  0  0  0  0  0  0  0  0  0  0  0
    5.5721   -1.0086    0.0000 C   0  0  0  0  0  0  0  0  0  0  0  0
    7.0639   -1.1654    0.0000 C   0  0  0  0  0  0  0  0  0  0  0  0
    7.9456    0.0481    0.0000 O   0  0  0  0  0  0  0  0  0  0  0  0
    7.6740   -2.5357    0.0000 N   0  0  0  0  0  0  0  0  0  0  0  0
    9.1658   -2.6925    0.0000 C   0  0  0  0  0  0  0  0  0  0  0  0
    9.7759   -4.0628    0.0000 N   0  0  0  0  0  0  0  0  0  0  0  0
   11.2677   -4.2196    0.0000 N   0  0  0  0  0  0  0  0  0  0  0  0
   12.1494   -3.0061    0.0000 N   0  0  0  0  0  0  0  0  0  0  0  0
   11.5393   -1.6358    0.0000 N   0  0  0  0  0  0  0  0  0  0  0  0
   10.0475   -1.4790    0.0000 N   0  0  0  0  0  0  0  0  0  0  0  0
    4.5684   -2.1233    0.0000 C   0  0  0  0  0  0  0  0  0  0  0  0
    4.8803   -3.5905    0.0000 O   0  0  0  0  0  0  0  0  0  0  0  0
    0.7500   -1.2990    0.0000 C   0  0  0  0  0  0  0  0  0  0  0  0
    1.5000    0.0000    0.0000 C   0  0  0  0  0  0  0  0  0  0  0  0
    0.7500    1.2990    0.0000 C   0  0  0  0  0  0  0  0  0  0  0  0
   -0.7500    1.2990    0.0000 C   0  0  0  0  0  0  0  0  0  0  0  0
   -1.5000    0.0000    0.0000 C   0  0  0  0  0  0  0  0  0  0  0  0
   -0.7500   -1.2990    0.0000 C   0  0  0  0  0  0  0  0  0  0  0  0
   -1.8991   -2.2632    0.0000 C   0  0  0  0  0  0  0  0  0  0  0  0
   -3.0481   -1.2990    0.0000 C   0  0  0  0  0  0  0  0  0  0  0  0
   -4.4577   -1.8121    0.0000 C   0  0  0  0  0  0  0  0  0  0  0  0
   -4.7181   -3.2893    0.0000 C   0  0  0  0  0  0  0  0  0  0  0  0
   -3.5691   -4.2535    0.0000 C   0  0  0  0  0  0  0  0  0  0  0  0
   -2.1595   -3.7404    0.0000 C   0  0  0  0  0  0  0  0  0  0  0  0
   -1.4095   -5.0395    0.0000 C   0  0  0  0  0  0  0  0  0  0  0  0
   -2.5586   -6.0037    0.0000 C   0  0  0  0  0  0  0  0  0  0  0  0
   -2.2981   -7.4809    0.0000 C   0  0  0  0  0  0  0  0  0  0  0  0
   -0.8886   -7.9939    0.0000 C   0  0  0  0  0  0  0  0  0  0  0  0
    0.2605   -7.0297    0.0000 C   0  0  0  0  0  0  0  0  0  0  0  0
   -0.0000   -5.5525    0.0000 C   0  0  0  0  0  0  0  0  0  0  0  0
  1  2  1  0
  2  3  2  0
  3  4  1  0
  4  5  1  0
  5  6  1  0
  6  7  1  0
  7  8  2  0
  8  9  1  0
  9 10  2  0
  9 11  1  0
 11 12  1  0
 12 13  2  0
 13 14  1  0
 14 15  2  0
 15 16  1  0
 16 17  2  0
  8 18  1  0
 18 19  2  0
  4 20  1  0
 20 21  2  0
 21 22  1  0
 22 23  2  0
 23 24  1  0
 24 25  2  0
 25 26  1  0
 26 27  2  0
 27 28  1  0
 28 29  2  0
 29 30  1  0
 30 31  2  0
 31 32  1  0
 32 33  2  0
 33 34  1  0
 34 35  2  0
 35 36  1  0
 36 37  2  0
 37  2  1  0
 18  5  1  0
 25 20  1  0
 31 26  1  0
 37 32  1  0
 17 12  1  0
M  END
>  <Title>  (774) 
idABBVgen14

$$$$

     RDKit          2D

101102  0  0  0  0  0  0  0  0999 V2000
    5.9773   -4.2699    0.0000 C   0  0  0  0  0  0  0  0  0  0  0  0
    6.7643   -4.3969    0.0000 C   0  0  0  0  0  0  0  0  0  0  0  0
    6.5921   -5.8869    0.0000 C   0  0  0  0  0  0  0  0  0  0  0  0
    6.5543   -7.3865    0.0000 C   0  0  0  0  0  0  0  0  0  0  0  0
    6.6510   -8.8833    0.0000 C   0  0  0  0  0  0  0  0  0  0  0  0
    6.8815  -10.3655    0.0000 C   0  0  0  0  0  0  0  0  0  0  0  0
    7.2439  -11.8211    0.0000 C   0  0  0  0  0  0  0  0  0  0  0  0
    7.7353  -13.2383    0.0000 C   0  0  0  0  0  0  0  0  0  0  0  0
    8.3519  -14.6057    0.0000 C   0  0  0  0  0  0  0  0  0  0  0  0
    9.0885  -15.9124    0.0000 C   0  0  0  0  0  0  0  0  0  0  0  0
    9.9392  -17.1478    0.0000 C   0  0  0  0  0  0  0  0  0  0  0  0
   10.8973  -18.3020    0.0000 C   0  0  0  0  0  0  0  0  0  0  0  0
   11.9550  -19.3656    0.0000 C   0  0  0  0  0  0  0  0  0  0  0  0
   13.1037  -20.3302    0.0000 C   0  0  0  0  0  0  0  0  0  0  0  0
   14.3343  -21.1878    0.0000 C   0  0  0  0  0  0  0  0  0  0  0  0
   15.6369  -21.9318    0.0000 C   0  0  0  0  0  0  0  0  0  0  0  0
   17.0008  -22.5559    0.0000 C   0  0  0  0  0  0  0  0  0  0  0  0
   18.4153  -23.0553    0.0000 C   0  0  0  0  0  0  0  0  0  0  0  0
   19.8688  -23.4259    0.0000 C   0  0  0  0  0  0  0  0  0  0  0  0
   21.3496  -23.6647    0.0000 C   0  0  0  0  0  0  0  0  0  0  0  0
   22.8460  -23.7698    0.0000 C   0  0  0  0  0  0  0  0  0  0  0  0
   24.3457  -23.7404    0.0000 C   0  0  0  0  0  0  0  0  0  0  0  0
   25.8367  -23.5766    0.0000 C   0  0  0  0  0  0  0  0  0  0  0  0
   27.3071  -23.2798    0.0000 C   0  0  0  0  0  0  0  0  0  0  0  0
   28.7449  -22.8525    0.0000 C   0  0  0  0  0  0  0  0  0  0  0  0
   30.1386  -22.2979    0.0000 C   0  0  0  0  0  0  0  0  0  0  0  0
   31.4770  -21.6207    0.0000 C   0  0  0  0  0  0  0  0  0  0  0  0
   32.7494  -20.8262    0.0000 C   0  0  0  0  0  0  0  0  0  0  0  0
   33.9453  -19.9209    0.0000 C   0  0  0  0  0  0  0  0  0  0  0  0
   35.0553  -18.9120    0.0000 C   0  0  0  0  0  0  0  0  0  0  0  0
   36.0705  -17.8076    0.0000 C   0  0  0  0  0  0  0  0  0  0  0  0
   36.9825  -16.6168    0.0000 C   0  0  0  0  0  0  0  0  0  0  0  0
   37.7841  -15.3489    0.0000 C   0  0  0  0  0  0  0  0  0  0  0  0
   38.4688  -14.0143    0.0000 C   0  0  0  0  0  0  0  0  0  0  0  0
   39.0312  -12.6237    0.0000 C   0  0  0  0  0  0  0  0  0  0  0  0
   39.4666  -11.1883    0.0000 C   0  0  0  0  0  0  0  0  0  0  0  0
   39.7716   -9.7196    0.0000 C   0  0  0  0  0  0  0  0  0  0  0  0
   39.9437   -8.2296    0.0000 C   0  0  0  0  0  0  0  0  0  0  0  0
   39.9816   -6.7300    0.0000 C   0  0  0  0  0  0  0  0  0  0  0  0
   39.8849   -5.2332    0.0000 C   0  0  0  0  0  0  0  0  0  0  0  0
   39.6544   -3.7510    0.0000 C   0  0  0  0  0  0  0  0  0  0  0  0
   39.2920   -2.2954    0.0000 C   0  0  0  0  0  0  0  0  0  0  0  0
   38.8005   -0.8782    0.0000 C   0  0  0  0  0  0  0  0  0  0  0  0
   38.1840    0.4892    0.0000 C   0  0  0  0  0  0  0  0  0  0  0  0
   37.4474    1.7959    0.0000 C   0  0  0  0  0  0  0  0  0  0  0  0
   36.5966    3.0313    0.0000 C   0  0  0  0  0  0  0  0  0  0  0  0
   35.6386    4.1855    0.0000 C   0  0  0  0  0  0  0  0  0  0  0  0
   34.5809    5.2491    0.0000 C   0  0  0  0  0  0  0  0  0  0  0  0
   33.4321    6.2137    0.0000 C   0  0  0  0  0  0  0  0  0  0  0  0
   32.2015    7.0713    0.0000 C   0  0  0  0  0  0  0  0  0  0  0  0
   30.8990    7.8153    0.0000 C   0  0  0  0  0  0  0  0  0  0  0  0
   29.5350    8.4394    0.0000 C   0  0  0  0  0  0  0  0  0  0  0  0
   28.1206    8.9388    0.0000 C   0  0  0  0  0  0  0  0  0  0  0  0
   26.6671    9.3094    0.0000 C   0  0  0  0  0  0  0  0  0  0  0  0
   25.1862    9.5482    0.0000 C   0  0  0  0  0  0  0  0  0  0  0  0
   23.6899    9.6533    0.0000 C   0  0  0  0  0  0  0  0  0  0  0  0
   22.1902    9.6239    0.0000 C   0  0  0  0  0  0  0  0  0  0  0  0
   20.6992    9.4601    0.0000 C   0  0  0  0  0  0  0  0  0  0  0  0
   19.2288    9.1633    0.0000 C   0  0  0  0  0  0  0  0  0  0  0  0
   17.7910    8.7360    0.0000 C   0  0  0  0  0  0  0  0  0  0  0  0
   16.3972    8.1814    0.0000 C   0  0  0  0  0  0  0  0  0  0  0  0
   15.0588    7.5042    0.0000 C   0  0  0  0  0  0  0  0  0  0  0  0
   13.7865    6.7097    0.0000 C   0  0  0  0  0  0  0  0  0  0  0  0
   12.5905    5.8044    0.0000 C   0  0  0  0  0  0  0  0  0  0  0  0
   11.4805    4.7955    0.0000 C   0  0  0  0  0  0  0  0  0  0  0  0
   10.4654    3.6911    0.0000 C   0  0  0  0  0  0  0  0  0  0  0  0
    9.5534    2.5003    0.0000 C   0  0  0  0  0  0  0  0  0  0  0  0
    8.7518    1.2324    0.0000 C   0  0  0  0  0  0  0  0  0  0  0  0
    8.0670   -0.1022    0.0000 C   0  0  0  0  0  0  0  0  0  0  0  0
    7.5047   -1.4928    0.0000 C   0  0  0  0  0  0  0  0  0  0  0  0
    6.9517   -0.0000    0.0000 C   0  0  0  0  0  0  0  0  0  0  0  0
    6.8181    1.3562    0.0000 C   0  0  0  0  0  0  0  0  0  0  0  0
    6.4226    2.6603    0.0000 C   0  0  0  0  0  0  0  0  0  0  0  0
    5.7801    3.8622    0.0000 C   0  0  0  0  0  0  0  0  0  0  0  0
    4.9156    4.9156    0.0000 C   0  0  0  0  0  0  0  0  0  0  0  0
    3.8622    5.7801    0.0000 C   0  0  0  0  0  0  0  0  0  0  0  0
    2.6603    6.4226    0.0000 C   0  0  0  0  0  0  0  0  0  0  0  0
    1.3562    6.8181    0.0000 C   0  0  0  0  0  0  0  0  0  0  0  0
    0.0000    6.9517    0.0000 C   0  0  0  0  0  0  0  0  0  0  0  0
   -1.3562    6.8181    0.0000 C   0  0  0  0  0  0  0  0  0  0  0  0
   -2.6603    6.4226    0.0000 C   0  0  0  0  0  0  0  0  0  0  0  0
   -3.8622    5.7801    0.0000 C   0  0  0  0  0  0  0  0  0  0  0  0
   -4.9156    4.9156    0.0000 C   0  0  0  0  0  0  0  0  0  0  0  0
   -5.7801    3.8622    0.0000 C   0  0  0  0  0  0  0  0  0  0  0  0
   -6.4226    2.6603    0.0000 C   0  0  0  0  0  0  0  0  0  0  0  0
   -6.8181    1.3562    0.0000 C   0  0  0  0  0  0  0  0  0  0  0  0
   -6.9517    0.0000    0.0000 C   0  0  0  0  0  0  0  0  0  0  0  0
   -6.8181   -1.3562    0.0000 C   0  0  0  0  0  0  0  0  0  0  0  0
   -6.4226   -2.6603    0.0000 C   0  0  0  0  0  0  0  0  0  0  0  0
   -5.7801   -3.8622    0.0000 C   0  0  0  0  0  0  0  0  0  0  0  0
   -4.9156   -4.9156    0.0000 C   0  0  0  0  0  0  0  0  0  0  0  0
   -3.8622   -5.7801    0.0000 C   0  0  0  0  0  0  0  0  0  0  0  0
   -2.6603   -6.4226    0.0000 C   0  0  0  0  0  0  0  0  0  0  0  0
   -1.3562   -6.8181    0.0000 C   0  0  0  0  0  0  0  0  0  0  0  0
   -0.0000   -6.9517    0.0000 C   0  0  0  0  0  0  0  0  0  0  0  0
    1.3562   -6.8181    0.0000 C   0  0  0  0  0  0  0  0  0  0  0  0
    2.6603   -6.4226    0.0000 C   0  0  0  0  0  0  0  0  0  0  0  0
    3.8622   -5.7801    0.0000 C   0  0  0  0  0  0  0  0  0  0  0  0
    4.9156   -4.9156    0.0000 C   0  0  0  0  0  0  0  0  0  0  0  0
    5.7801   -3.8622    0.0000 C   0  0  0  0  0  0  0  0  0  0  0  0
    7.0693   -2.9282    0.0000 C   0  0  0  0  0  0  0  0  0  0  0  0
  1  2  1  0
  2  3  1  0
  3  4  1  0
  4  5  1  0
  5  6  1  0
  6  7  1  0
  7  8  1  0
  8  9  1  0
  9 10  1  0
 10 11  1  0
 11 12  1  0
 12 13  1  0
 13 14  1  0
 14 15  1  0
 15 16  1  0
 16 17  1  0
 17 18  1  0
 18 19  1  0
 19 20  1  0
 20 21  1  0
 21 22  1  0
 22 23  1  0
 23 24  1  0
 24 25  1  0
 25 26  1  0
 26 27  1  0
 27 28  1  0
 28 29  1  0
 29 30  1  0
 30 31  1  0
 31 32  1  0
 32 33  1  0
 33 34  1  0
 34 35  1  0
 35 36  1  0
 36 37  1  0
 37 38  1  0
 38 39  1  0
 39 40  1  0
 40 41  1  0
 41 42  1  0
 42 43  1  0
 43 44  1  0
 44 45  1  0
 45 46  1  0
 46 47  1  0
 47 48  1  0
 48 49  1  0
 49 50  1  0
 50 51  1  0
 51 52  1  0
 52 53  1  0
 53 54  1  0
 54 55  1  0
 55 56  1  0
 56 57  1  0
 57 58  1  0
 58 59  1  0
 59 60  1  0
 60 61  1  0
 61 62  1  0
 62 63  1  0
 63 64  1  0
 64 65  1  0
 65 66  1  0
 66 67  1  0
 67 68  1  0
 68 69  1  0
 69 70  1  0
 70 71  1  0
 71 72  1  0
 72 73  1  0
 73 74  1  0
 74 75  2  0
 75 76  1  0
 76 77  2  0
 77 78  1  0
 78 79  2  0
 79 80  1  0
 80 81  2  0
 81 82  1  0
 82 83  2  0
 83 84  1  0
 84 85  2  0
 85 86  1  0
 86 87  2  0
 87 88  1  0
 88 89  2  0
 89 90  1  0
 90 91  2  0
 91 92  1  0
 92 93  2  0
 93 94  1  0
 94 95  2  0
 95 96  1  0
 96 97  2  0
 97 98  1  0
 98 99  2  0
 99100  1  0
100101  2  0
101  2  1  0
101 70  1  0
M  END
>  <Title>  (775) 
idABBWgen14

$$$$

     RDKit          2D

 48 53  0  0  0  0  0  0  0  0999 V2000
   -8.9002    4.1890    0.0000 C   0  0  0  0  0  0  0  0  0  0  0  0
   -7.4329    4.5009    0.0000 C   0  0  0  0  0  0  0  0  0  0  0  0
   -6.9694    5.9275    0.0000 C   0  0  0  0  0  0  0  0  0  0  0  0
   -6.4292    3.3862    0.0000 C   0  0  0  0  0  0  0  0  0  0  0  0
   -4.9620    3.6981    0.0000 C   0  0  0  0  0  0  0  0  0  0  0  0
   -4.4985    5.1246    0.0000 C   0  0  0  0  0  0  0  0  0  0  0  0
   -3.9583    2.5833    0.0000 N   0  0  0  0  0  0  0  0  0  0  0  0
   -4.4218    1.1568    0.0000 C   0  0  0  0  0  0  0  0  0  0  0  0
   -5.8891    0.8449    0.0000 O   0  0  0  0  0  0  0  0  0  0  0  0
   -3.4182    0.0420    0.0000 N   0  0  0  0  0  0  0  0  0  0  0  0
   -3.8817   -1.3846    0.0000 C   0  0  0  0  0  0  0  0  0  0  0  0
   -5.3083   -1.8481    0.0000 N   0  0  0  0  0  0  0  0  0  0  0  0
   -5.3083   -3.3481    0.0000 N   0  0  0  0  0  0  0  0  0  0  0  0
   -3.8817   -3.8116    0.0000 N   0  0  0  0  0  0  0  0  0  0  0  0
   -3.0000   -2.5981    0.0000 N   0  0  0  0  0  0  0  0  0  0  0  0
   -1.5000   -2.5981    0.0000 C   0  0  0  0  0  0  0  0  0  0  0  0
   -0.7500   -3.8971    0.0000 C   0  0  0  0  0  0  0  0  0  0  0  0
    0.7500   -3.8971    0.0000 C   0  0  0  0  0  0  0  0  0  0  0  0
    1.5000   -2.5981    0.0000 C   0  0  0  0  0  0  0  0  0  0  0  0
    3.0000   -2.5981    0.0000 C   0  0  0  0  0  0  0  0  0  0  0  0
    3.7500   -1.2990    0.0000 O   0  0  0  0  0  0  0  0  0  0  0  0
    3.7500   -3.8971    0.0000 N   0  0  0  0  0  0  0  0  0  0  0  0
    5.2500   -3.8971    0.0000 C   0  0  0  0  0  0  0  0  0  0  0  0
    6.1317   -2.6836    0.0000 N   0  0  0  0  0  0  0  0  0  0  0  0
    7.5583   -3.1471    0.0000 N   0  0  0  0  0  0  0  0  0  0  0  0
    7.5583   -4.6471    0.0000 N   0  0  0  0  0  0  0  0  0  0  0  0
    6.1317   -5.1106    0.0000 N   0  0  0  0  0  0  0  0  0  0  0  0
    5.6682   -6.5372    0.0000 N   0  0  0  0  0  0  0  0  0  0  0  0
    6.5498   -7.7508    0.0000 C   0  0  0  0  0  0  0  0  0  0  0  0
    5.6682   -8.9643    0.0000 C   0  0  0  0  0  0  0  0  0  0  0  0
    4.2416   -8.5008    0.0000 N   0  0  0  0  0  0  0  0  0  0  0  0
    3.0280   -9.3824    0.0000 C   0  0  0  0  0  0  0  0  0  0  0  0
    3.1848  -10.8742    0.0000 O   0  0  0  0  0  0  0  0  0  0  0  0
    1.6577   -8.7723    0.0000 N   0  0  0  0  0  0  0  0  0  0  0  0
    0.4442   -9.6540    0.0000 C   0  0  0  0  0  0  0  0  0  0  0  0
   -0.9261   -9.0439    0.0000 N   0  0  0  0  0  0  0  0  0  0  0  0
   -2.1396   -9.9256    0.0000 N   0  0  0  0  0  0  0  0  0  0  0  0
   -1.9829  -11.4174    0.0000 N   0  0  0  0  0  0  0  0  0  0  0  0
   -0.6125  -12.0275    0.0000 N   0  0  0  0  0  0  0  0  0  0  0  0
    0.6010  -11.1458    0.0000 N   0  0  0  0  0  0  0  0  0  0  0  0
    4.2416   -7.0008    0.0000 C   0  0  0  0  0  0  0  0  0  0  0  0
    3.0280   -6.1191    0.0000 O   0  0  0  0  0  0  0  0  0  0  0  0
    0.7500   -1.2990    0.0000 C   0  0  0  0  0  0  0  0  0  0  0  0
    1.5000    0.0000    0.0000 C   0  0  0  0  0  0  0  0  0  0  0  0
    0.7500    1.2990    0.0000 C   0  0  0  0  0  0  0  0  0  0  0  0
   -0.7500    1.2990    0.0000 C   0  0  0  0  0  0  0  0  0  0  0  0
   -1.5000    0.0000    0.0000 C   0  0  0  0  0  0  0  0  0  0  0  0
   -0.7500   -1.2990    0.0000 C   0  0  0  0  0  0  0  0  0  0  0  0
  1  2  1  0
  2  3  1  0
  2  4  1  0
  4  5  1  0
  5  6  1  0
  5  7  1  0
  7  8  1  0
  8  9  2  0
  8 10  1  0
 10 11  1  0
 11 12  2  0
 12 13  1  0
 13 14  2  0
 14 15  1  0
 15 16  1  0
 16 17  2  0
 17 18  1  0
 18 19  2  0
 19 20  1  0
 20 21  2  0
 20 22  1  0
 22 23  1  0
 23 24  2  0
 24 25  1  0
 25 26  2  0
 26 27  1  0
 27 28  1  0
 28 29  1  0
 29 30  1  0
 30 31  1  0
 31 32  1  0
 32 33  2  0
 32 34  1  0
 34 35  1  0
 35 36  2  0
 36 37  1  0
 37 38  2  0
 38 39  1  0
 39 40  2  0
 31 41  1  0
 41 42  2  0
 19 43  1  0
 43 44  2  0
 44 45  1  0
 45 46  2  0
 46 47  1  0
 47 48  2  0
 15 11  1  0
 48 16  1  0
 27 23  1  0
 41 28  1  0
 48 43  1  0
 40 35  1  0
M  END
>  <Title>  (776) 
idABBXgen14

$$$$

     RDKit          2D

 14 13  0  0  0  0  0  0  0  0999 V2000
    0.0000    0.0000    0.0000 C   0  0  0  0  0  0  0  0  0  0  0  0
    1.2990    0.7500    0.0000 C   0  0  0  0  0  0  0  0  0  0  0  0
    2.5981   -0.0000    0.0000 C   0  0  0  0  0  0  0  0  0  0  0  0
    3.8971    0.7500    0.0000 C   0  0  0  0  0  0  0  0  0  0  0  0
    5.1962   -0.0000    0.0000 C   0  0  0  0  0  0  0  0  0  0  0  0
    5.1962   -1.5000    0.0000 O   0  0  0  0  0  0  0  0  0  0  0  0
    6.4952    0.7500    0.0000 N   0  0  0  0  0  0  0  0  0  0  0  0
    7.7942   -0.0000    0.0000 C   0  0  0  0  0  0  0  0  0  0  0  0
    9.0933    0.7500    0.0000 C   0  0  0  0  0  0  0  0  0  0  0  0
   10.3923   -0.0000    0.0000 N   0  0  0  0  0  0  0  0  0  0  0  0
   11.6913    0.7500    0.0000 N   0  0  0  0  0  0  0  0  0  0  0  0
   12.9904   -0.0000    0.0000 C   0  0  0  0  0  0  0  0  0  0  0  0
   14.2894    0.7500    0.0000 C   0  0  0  0  0  0  0  0  0  0  0  0
   12.9904   -1.5000    0.0000 C   0  0  0  0  0  0  0  0  0  0  0  0
  1  2  2  0
  2  3  1  0
  3  4  1  0
  4  5  1  0
  5  6  2  0
  5  7  1  0
  7  8  1  0
  8  9  1  0
  9 10  2  3
 10 11  1  0
 11 12  1  0
 12 13  1  0
 12 14  1  0
M  END
>  <Title>  (777) 
idABBYgen14

$$$$

     RDKit          2D

 35 39  0  0  0  0  0  0  0  0999 V2000
   -3.1965   -1.7857    0.0000 C   0  0  0  0  0  0  0  0  0  0  0  0
   -1.8107   -2.3597    0.0000 C   0  0  0  0  0  0  0  0  0  0  0  0
   -1.8107   -3.8597    0.0000 C   0  0  0  0  0  0  0  0  0  0  0  0
   -0.7500   -4.9204    0.0000 C   0  0  0  0  0  0  0  0  0  0  0  0
    0.7500   -4.9204    0.0000 C   0  0  0  0  0  0  0  0  0  0  0  0
    1.8107   -3.8597    0.0000 C   0  0  0  0  0  0  0  0  0  0  0  0
    1.8107   -2.3597    0.0000 C   0  0  0  0  0  0  0  0  0  0  0  0
    3.1965   -1.7857    0.0000 C   0  0  0  0  0  0  0  0  0  0  0  0
    3.3923   -0.2985    0.0000 O   0  0  0  0  0  0  0  0  0  0  0  0
    4.3865   -2.6988    0.0000 N   0  0  0  0  0  0  0  0  0  0  0  0
    5.7723   -2.1248    0.0000 C   0  0  0  0  0  0  0  0  0  0  0  0
    6.1225   -0.6662    0.0000 N   0  0  0  0  0  0  0  0  0  0  0  0
    7.6179   -0.5485    0.0000 N   0  0  0  0  0  0  0  0  0  0  0  0
    8.1919   -1.9344    0.0000 N   0  0  0  0  0  0  0  0  0  0  0  0
    7.0513   -2.9085    0.0000 N   0  0  0  0  0  0  0  0  0  0  0  0
    7.1690   -4.4039    0.0000 N   0  0  0  0  0  0  0  0  0  0  0  0
    6.1948   -5.5445    0.0000 C   0  0  0  0  0  0  0  0  0  0  0  0
    7.3354   -6.5187    0.0000 C   0  0  0  0  0  0  0  0  0  0  0  0
    7.4531   -8.0141    0.0000 C   0  0  0  0  0  0  0  0  0  0  0  0
    8.8070   -8.6598    0.0000 O   0  0  0  0  0  0  0  0  0  0  0  0
    6.2169   -8.8637    0.0000 N   0  0  0  0  0  0  0  0  0  0  0  0
    6.3346  -10.3591    0.0000 C   0  0  0  0  0  0  0  0  0  0  0  0
    5.0984  -11.2087    0.0000 N   0  0  0  0  0  0  0  0  0  0  0  0
    5.2161  -12.7040    0.0000 N   0  0  0  0  0  0  0  0  0  0  0  0
    6.5700  -13.3498    0.0000 N   0  0  0  0  0  0  0  0  0  0  0  0
    7.8062  -12.5002    0.0000 N   0  0  0  0  0  0  0  0  0  0  0  0
    7.6885  -11.0048    0.0000 N   0  0  0  0  0  0  0  0  0  0  0  0
    8.3096   -5.3781    0.0000 C   0  0  0  0  0  0  0  0  0  0  0  0
    9.8050   -5.2604    0.0000 O   0  0  0  0  0  0  0  0  0  0  0  0
    0.7500   -1.2990    0.0000 C   0  0  0  0  0  0  0  0  0  0  0  0
    1.5000    0.0000    0.0000 C   0  0  0  0  0  0  0  0  0  0  0  0
    0.7500    1.2990    0.0000 C   0  0  0  0  0  0  0  0  0  0  0  0
   -0.7500    1.2990    0.0000 C   0  0  0  0  0  0  0  0  0  0  0  0
   -1.5000    0.0000    0.0000 C   0  0  0  0  0  0  0  0  0  0  0  0
   -0.7500   -1.2990    0.0000 C   0  0  0  0  0  0  0  0  0  0  0  0
  1  2  1  0
  2  3  1  0
  3  4  2  0
  4  5  1  0
  5  6  1  0
  6  7  1  0
  7  8  1  0
  8  9  2  0
  8 10  1  0
 10 11  1  0
 11 12  2  0
 12 13  1  0
 13 14  2  0
 14 15  1  0
 15 16  1  0
 16 17  1  0
 17 18  2  0
 18 19  1  0
 19 20  2  0
 19 21  1  0
 21 22  1  0
 22 23  2  0
 23 24  1  0
 24 25  2  0
 25 26  1  0
 26 27  2  0
 18 28  1  0
 28 29  2  0
  7 30  1  0
 30 31  2  0
 31 32  1  0
 32 33  2  0
 33 34  1  0
 34 35  2  0
 35  2  1  0
 15 11  1  0
 28 16  1  0
 35 30  1  0
 27 22  1  0
M  END
>  <Title>  (778) 
idABBZgen14

$$$$

     RDKit          2D

 10  9  0  0  0  0  0  0  0  0999 V2000
    0.0000    0.0000    0.0000 C   0  0  0  0  0  0  0  0  0  0  0  0
   -0.0000   -1.5000    0.0000 C   0  0  0  0  0  0  0  0  0  0  0  0
   -0.0000   -3.0000    0.0000 C   0  0  0  0  0  0  0  0  0  0  0  0
   -0.0000   -4.5000    0.0000 C   0  0  0  0  0  0  0  0  0  0  0  0
   -0.0000   -6.0000    0.0000 C   0  0  0  0  0  0  0  0  0  0  0  0
   -0.0000   -7.5000    0.0000 C   0  0  0  0  0  0  0  0  0  0  0  0
   -0.0000   -9.0000    0.0000 C   0  0  0  0  0  0  0  0  0  0  0  0
   -0.0000  -10.5000    0.0000 C   0  0  0  0  0  0  0  0  0  0  0  0
   -0.0000  -12.0000    0.0000 C   0  0  0  0  0  0  0  0  0  0  0  0
   -0.0000  -13.5000    0.0000 C   0  0  0  0  0  0  0  0  0  0  0  0
  1  2  3  0
  2  3  1  0
  3  4  3  0
  4  5  1  0
  5  6  3  0
  6  7  1  0
  7  8  3  0
  8  9  1  0
  9 10  3  0
M  END
>  <Title>  (779) 
idABCAgen14

$$$$

     RDKit          2D

  9  9  0  0  0  0  0  0  0  0999 V2000
    5.0260   -1.2990    0.0000 C   0  0  0  0  0  0  0  0  0  0  0  0
    3.5260   -1.2990    0.0000 C   0  0  0  0  0  0  0  0  0  0  0  0
    2.7760   -2.5981    0.0000 C   0  0  0  0  0  0  0  0  0  0  0  0
    2.7760    0.0000    0.0000 C   0  0  0  0  0  0  0  0  0  0  0  0
    1.2760    0.0000    0.0000 C   0  0  0  0  0  0  0  0  0  0  0  0
    0.3943    1.2135    0.0000 C   0  0  0  0  0  0  0  0  0  0  0  0
   -1.0323    0.7500    0.0000 C   0  0  0  0  0  0  0  0  0  0  0  0
   -1.0323   -0.7500    0.0000 C   0  0  0  0  0  0  0  0  0  0  0  0
    0.3943   -1.2135    0.0000 C   0  0  0  0  0  0  0  0  0  0  0  0
  1  2  1  0
  2  3  1  0
  2  4  1  0
  4  5  1  0
  5  6  2  0
  6  7  1  0
  7  8  1  0
  8  9  2  0
  9  5  1  0
M  END
>  <Title>  (780) 
idABCBgen14

$$$$

     RDKit          2D

 12 12  0  0  0  0  0  0  0  0999 V2000
    7.5000   -2.5981    0.0000 C   0  0  0  0  0  0  0  0  0  0  0  0
    6.0000   -2.5981    0.0000 C   0  0  0  0  0  0  0  0  0  0  0  0
    5.2500   -3.8971    0.0000 O   0  0  0  0  0  0  0  0  0  0  0  0
    5.2500   -1.2990    0.0000 N   0  0  0  0  0  0  0  0  0  0  0  0
    3.7500   -1.2990    0.0000 C   0  0  0  0  0  0  0  0  0  0  0  0
    3.0000    0.0000    0.0000 C   0  0  0  0  0  0  0  0  0  0  0  0
    1.5000    0.0000    0.0000 C   0  0  0  0  0  0  0  0  0  0  0  0
    0.7500   -1.2990    0.0000 C   0  0  0  0  0  0  0  0  0  0  0  0
   -0.7500   -1.2990    0.0000 C   0  0  0  0  0  0  0  0  0  0  0  0
   -1.5000    0.0000    0.0000 C   0  0  0  0  0  0  0  0  0  0  0  0
   -0.7500    1.2990    0.0000 N   0  0  0  0  0  0  0  0  0  0  0  0
    0.7500    1.2990    0.0000 C   0  0  0  0  0  0  0  0  0  0  0  0
  1  2  1  0
  2  3  2  0
  2  4  1  0
  4  5  1  0
  5  6  1  0
  6  7  1  0
  7  8  2  0
  8  9  1  0
  9 10  2  0
 10 11  1  0
 11 12  2  0
 12  7  1  0
M  END
>  <Title>  (781) 
idABCCgen14

$$$$

     RDKit          2D

 10 10  0  0  0  0  0  0  0  0999 V2000
    5.2500    1.2990    0.0000 C   0  0  0  0  0  0  0  0  0  0  0  0
    3.7500    1.2990    0.0000 C   0  0  0  0  0  0  0  0  0  0  0  0
    3.0000    0.0000    0.0000 C   0  0  0  0  0  0  0  0  0  0  0  0
    3.7500   -1.2990    0.0000 C   0  0  0  0  0  0  0  0  0  0  0  0
    1.5000    0.0000    0.0000 C   0  0  0  0  0  0  0  0  0  0  0  0
    0.7500   -1.2990    0.0000 C   0  0  0  0  0  0  0  0  0  0  0  0
   -0.7500   -1.2990    0.0000 C   0  0  0  0  0  0  0  0  0  0  0  0
   -1.5000    0.0000    0.0000 C   0  0  0  0  0  0  0  0  0  0  0  0
   -0.7500    1.2990    0.0000 N   0  0  0  0  0  0  0  0  0  0  0  0
    0.7500    1.2990    0.0000 C   0  0  0  0  0  0  0  0  0  0  0  0
  1  2  1  0
  2  3  1  0
  3  4  1  0
  3  5  1  0
  5  6  2  0
  6  7  1  0
  7  8  2  0
  8  9  1  0
  9 10  2  0
 10  5  1  0
M  END
>  <Title>  (782) 
idABCDgen14

$$$$

     RDKit          2D

  6  5  0  0  0  0  0  0  0  0999 V2000
    0.0000    0.0000    0.0000 C   0  0  0  0  0  0  0  0  0  0  0  0
    1.2990    0.7500    0.0000 C   0  0  0  0  0  0  0  0  0  0  0  0
    2.5981   -0.0000    0.0000 C   0  0  0  0  0  0  0  0  0  0  0  0
    3.8971    0.7500    0.0000 C   0  0  0  0  0  0  0  0  0  0  0  0
    5.1962   -0.0000    0.0000 N   0  0  0  0  0  0  0  0  0  0  0  0
    6.4952    0.7500    0.0000 C   0  0  0  0  0  0  0  0  0  0  0  0
  1  2  1  0
  2  3  1  0
  3  4  1  0
  4  5  2  3
  5  6  1  0
M  END
>  <Title>  (783) 
idABCEgen14

$$$$

     RDKit          2D

 44 48  0  0  0  0  0  0  0  0999 V2000
   -5.2500   -9.0933    0.0000 C   0  0  0  0  0  0  0  0  0  0  0  0
   -6.0000   -7.7942    0.0000 C   0  0  0  0  0  0  0  0  0  0  0  0
   -7.5000   -7.7942    0.0000 C   0  0  0  0  0  0  0  0  0  0  0  0
   -5.2500   -6.4952    0.0000 C   0  0  0  0  0  0  0  0  0  0  0  0
   -6.0000   -5.1962    0.0000 C   0  0  0  0  0  0  0  0  0  0  0  0
   -7.5000   -5.1962    0.0000 C   0  0  0  0  0  0  0  0  0  0  0  0
   -5.2500   -3.8971    0.0000 N   0  0  0  0  0  0  0  0  0  0  0  0
   -3.7500   -3.8971    0.0000 C   0  0  0  0  0  0  0  0  0  0  0  0
   -3.0000   -5.1962    0.0000 O   0  0  0  0  0  0  0  0  0  0  0  0
   -3.0000   -2.5981    0.0000 N   0  0  0  0  0  0  0  0  0  0  0  0
   -1.5000   -2.5981    0.0000 C   0  0  0  0  0  0  0  0  0  0  0  0
   -0.7500   -3.8971    0.0000 C   0  0  0  0  0  0  0  0  0  0  0  0
    0.7500   -3.8971    0.0000 S   0  0  0  0  0  4  0  0  0  0  0  0
    1.5000   -2.5981    0.0000 C   0  0  0  0  0  0  0  0  0  0  0  0
    3.0000   -2.5981    0.0000 O   0  0  0  0  0  0  0  0  0  0  0  0
    3.7500   -3.8971    0.0000 C   0  0  0  0  0  0  0  0  0  0  0  0
    3.0000   -5.1962    0.0000 O   0  0  0  0  0  0  0  0  0  0  0  0
    5.2500   -3.8971    0.0000 N   0  0  0  0  0  0  0  0  0  0  0  0
    6.0000   -5.1962    0.0000 C   0  0  0  0  0  0  0  0  0  0  0  0
    5.3899   -6.5665    0.0000 N   0  0  0  0  0  0  0  0  0  0  0  0
    6.5046   -7.5702    0.0000 N   0  0  0  0  0  0  0  0  0  0  0  0
    7.8037   -6.8202    0.0000 N   0  0  0  0  0  0  0  0  0  0  0  0
    7.4918   -5.3529    0.0000 N   0  0  0  0  0  0  0  0  0  0  0  0
    8.4955   -4.2382    0.0000 N   0  0  0  0  0  0  0  0  0  0  0  0
    9.9873   -4.3950    0.0000 C   0  0  0  0  0  0  0  0  0  0  0  0
   10.5974   -3.0247    0.0000 C   0  0  0  0  0  0  0  0  0  0  0  0
    9.4826   -2.0210    0.0000 C   0  0  0  0  0  0  0  0  0  0  0  0
    9.6394   -0.5292    0.0000 C   0  0  0  0  0  0  0  0  0  0  0  0
    8.4259    0.3525    0.0000 O   0  0  0  0  0  0  0  0  0  0  0  0
   11.0098    0.0809    0.0000 N   0  0  0  0  0  0  0  0  0  0  0  0
   12.2233   -0.8008    0.0000 C   0  0  0  0  0  0  0  0  0  0  0  0
   12.0665   -2.2926    0.0000 N   0  0  0  0  0  0  0  0  0  0  0  0
   13.2800   -3.1743    0.0000 N   0  0  0  0  0  0  0  0  0  0  0  0
   14.6503   -2.5642    0.0000 N   0  0  0  0  0  0  0  0  0  0  0  0
   14.8071   -1.0724    0.0000 N   0  0  0  0  0  0  0  0  0  0  0  0
   13.5936   -0.1907    0.0000 N   0  0  0  0  0  0  0  0  0  0  0  0
    8.1836   -2.7710    0.0000 C   0  0  0  0  0  0  0  0  0  0  0  0
    6.8133   -2.1609    0.0000 O   0  0  0  0  0  0  0  0  0  0  0  0
    0.7500   -1.2990    0.0000 C   0  0  0  0  0  0  0  0  0  0  0  0
    1.5000    0.0000    0.0000 C   0  0  0  0  0  0  0  0  0  0  0  0
    0.7500    1.2990    0.0000 C   0  0  0  0  0  0  0  0  0  0  0  0
   -0.7500    1.2990    0.0000 C   0  0  0  0  0  0  0  0  0  0  0  0
   -1.5000    0.0000    0.0000 C   0  0  0  0  0  0  0  0  0  0  0  0
   -0.7500   -1.2990    0.0000 C   0  0  0  0  0  0  0  0  0  0  0  0
  1  2  1  0
  2  3  1  0
  2  4  1  0
  4  5  1  0
  5  6  1  0
  5  7  1  0
  7  8  1  0
  8  9  2  0
  8 10  1  0
 10 11  1  0
 11 12  2  0
 12 13  1  0
 13 14  2  0
 14 15  1  0
 15 16  1  0
 16 17  2  0
 16 18  1  0
 18 19  1  0
 19 20  2  0
 20 21  1  0
 21 22  2  0
 22 23  1  0
 23 24  1  0
 24 25  1  0
 25 26  1  0
 26 27  1  0
 27 28  1  0
 28 29  2  0
 28 30  1  0
 30 31  1  0
 31 32  2  0
 32 33  1  0
 33 34  2  0
 34 35  1  0
 35 36  2  0
 27 37  1  0
 37 38  2  0
 14 39  1  0
 39 40  2  0
 40 41  1  0
 41 42  2  0
 42 43  1  0
 43 44  2  0
 44 11  1  0
 23 19  1  0
 37 24  1  0
 44 39  1  0
 36 31  1  0
M  END
>  <Title>  (784) 
idABCFgen14

$$$$

     RDKit          2D

 75 76  0  0  0  0  0  0  0  0999 V2000
    2.5908   -3.9846    0.0000 C   0  0  0  0  0  0  0  0  0  0  0  0
    3.3516   -4.2224    0.0000 C   0  0  0  0  0  0  0  0  0  0  0  0
    2.9851   -5.6769    0.0000 C   0  0  0  0  0  0  0  0  0  0  0  0
    2.7838   -7.1634    0.0000 C   0  0  0  0  0  0  0  0  0  0  0  0
    2.7501   -8.6630    0.0000 C   0  0  0  0  0  0  0  0  0  0  0  0
    2.8846  -10.1569    0.0000 C   0  0  0  0  0  0  0  0  0  0  0  0
    3.1855  -11.6265    0.0000 C   0  0  0  0  0  0  0  0  0  0  0  0
    3.6490  -13.0530    0.0000 C   0  0  0  0  0  0  0  0  0  0  0  0
    4.2693  -14.4188    0.0000 C   0  0  0  0  0  0  0  0  0  0  0  0
    5.0387  -15.7064    0.0000 C   0  0  0  0  0  0  0  0  0  0  0  0
    5.9474  -16.8999    0.0000 C   0  0  0  0  0  0  0  0  0  0  0  0
    6.9840  -17.9841    0.0000 C   0  0  0  0  0  0  0  0  0  0  0  0
    8.1354  -18.9454    0.0000 C   0  0  0  0  0  0  0  0  0  0  0  0
    9.3873  -19.7717    0.0000 C   0  0  0  0  0  0  0  0  0  0  0  0
   10.7238  -20.4527    0.0000 C   0  0  0  0  0  0  0  0  0  0  0  0
   12.1281  -20.9798    0.0000 C   0  0  0  0  0  0  0  0  0  0  0  0
   13.5827  -21.3463    0.0000 C   0  0  0  0  0  0  0  0  0  0  0  0
   15.0691  -21.5476    0.0000 C   0  0  0  0  0  0  0  0  0  0  0  0
   16.5687  -21.5813    0.0000 C   0  0  0  0  0  0  0  0  0  0  0  0
   18.0627  -21.4468    0.0000 C   0  0  0  0  0  0  0  0  0  0  0  0
   19.5322  -21.1459    0.0000 C   0  0  0  0  0  0  0  0  0  0  0  0
   20.9588  -20.6824    0.0000 C   0  0  0  0  0  0  0  0  0  0  0  0
   22.3245  -20.0621    0.0000 C   0  0  0  0  0  0  0  0  0  0  0  0
   23.6122  -19.2927    0.0000 C   0  0  0  0  0  0  0  0  0  0  0  0
   24.8056  -18.3840    0.0000 C   0  0  0  0  0  0  0  0  0  0  0  0
   25.8898  -17.3474    0.0000 C   0  0  0  0  0  0  0  0  0  0  0  0
   26.8511  -16.1960    0.0000 C   0  0  0  0  0  0  0  0  0  0  0  0
   27.6775  -14.9441    0.0000 C   0  0  0  0  0  0  0  0  0  0  0  0
   28.3584  -13.6076    0.0000 C   0  0  0  0  0  0  0  0  0  0  0  0
   28.8855  -12.2033    0.0000 C   0  0  0  0  0  0  0  0  0  0  0  0
   29.2520  -10.7487    0.0000 C   0  0  0  0  0  0  0  0  0  0  0  0
   29.4534   -9.2623    0.0000 C   0  0  0  0  0  0  0  0  0  0  0  0
   29.4870   -7.7627    0.0000 C   0  0  0  0  0  0  0  0  0  0  0  0
   29.3526   -6.2687    0.0000 C   0  0  0  0  0  0  0  0  0  0  0  0
   29.0517   -4.7992    0.0000 C   0  0  0  0  0  0  0  0  0  0  0  0
   28.5882   -3.3726    0.0000 C   0  0  0  0  0  0  0  0  0  0  0  0
   27.9678   -2.0069    0.0000 C   0  0  0  0  0  0  0  0  0  0  0  0
   27.1985   -0.7192    0.0000 C   0  0  0  0  0  0  0  0  0  0  0  0
   26.2898    0.4742    0.0000 C   0  0  0  0  0  0  0  0  0  0  0  0
   25.2532    1.5584    0.0000 C   0  0  0  0  0  0  0  0  0  0  0  0
   24.1017    2.5197    0.0000 C   0  0  0  0  0  0  0  0  0  0  0  0
   22.8499    3.3461    0.0000 C   0  0  0  0  0  0  0  0  0  0  0  0
   21.5134    4.0270    0.0000 C   0  0  0  0  0  0  0  0  0  0  0  0
   20.1090    4.5541    0.0000 C   0  0  0  0  0  0  0  0  0  0  0  0
   18.6545    4.9206    0.0000 C   0  0  0  0  0  0  0  0  0  0  0  0
   17.1680    5.1220    0.0000 C   0  0  0  0  0  0  0  0  0  0  0  0
   15.6684    5.1556    0.0000 C   0  0  0  0  0  0  0  0  0  0  0  0
   14.1745    5.0212    0.0000 C   0  0  0  0  0  0  0  0  0  0  0  0
   12.7050    4.7203    0.0000 C   0  0  0  0  0  0  0  0  0  0  0  0
   11.2784    4.2568    0.0000 C   0  0  0  0  0  0  0  0  0  0  0  0
    9.9126    3.6364    0.0000 C   0  0  0  0  0  0  0  0  0  0  0  0
    8.6250    2.8671    0.0000 C   0  0  0  0  0  0  0  0  0  0  0  0
    7.4315    1.9584    0.0000 C   0  0  0  0  0  0  0  0  0  0  0  0
    6.3473    0.9218    0.0000 C   0  0  0  0  0  0  0  0  0  0  0  0
    5.3860   -0.2297    0.0000 C   0  0  0  0  0  0  0  0  0  0  0  0
    4.5597   -1.4815    0.0000 C   0  0  0  0  0  0  0  0  0  0  0  0
    4.0943   -0.0000    0.0000 C   0  0  0  0  0  0  0  0  0  0  0  0
    3.8939    1.2652    0.0000 C   0  0  0  0  0  0  0  0  0  0  0  0
    3.3124    2.4066    0.0000 C   0  0  0  0  0  0  0  0  0  0  0  0
    2.4066    3.3124    0.0000 C   0  0  0  0  0  0  0  0  0  0  0  0
    1.2652    3.8939    0.0000 C   0  0  0  0  0  0  0  0  0  0  0  0
    0.0000    4.0943    0.0000 C   0  0  0  0  0  0  0  0  0  0  0  0
   -1.2652    3.8939    0.0000 C   0  0  0  0  0  0  0  0  0  0  0  0
   -2.4066    3.3124    0.0000 C   0  0  0  0  0  0  0  0  0  0  0  0
   -3.3124    2.4066    0.0000 C   0  0  0  0  0  0  0  0  0  0  0  0
   -3.8939    1.2652    0.0000 C   0  0  0  0  0  0  0  0  0  0  0  0
   -4.0943    0.0000    0.0000 C   0  0  0  0  0  0  0  0  0  0  0  0
   -3.8939   -1.2652    0.0000 C   0  0  0  0  0  0  0  0  0  0  0  0
   -3.3124   -2.4066    0.0000 C   0  0  0  0  0  0  0  0  0  0  0  0
   -2.4066   -3.3124    0.0000 C   0  0  0  0  0  0  0  0  0  0  0  0
   -1.2652   -3.8939    0.0000 C   0  0  0  0  0  0  0  0  0  0  0  0
   -0.0000   -4.0943    0.0000 C   0  0  0  0  0  0  0  0  0  0  0  0
    1.2652   -3.8939    0.0000 C   0  0  0  0  0  0  0  0  0  0  0  0
    2.4066   -3.3124    0.0000 C   0  0  0  0  0  0  0  0  0  0  0  0
    3.8787   -2.8180    0.0000 C   0  0  0  0  0  0  0  0  0  0  0  0
  1  2  1  0
  2  3  1  0
  3  4  1  0
  4  5  1  0
  5  6  1  0
  6  7  1  0
  7  8  1  0
  8  9  1  0
  9 10  1  0
 10 11  1  0
 11 12  1  0
 12 13  1  0
 13 14  1  0
 14 15  1  0
 15 16  1  0
 16 17  1  0
 17 18  1  0
 18 19  1  0
 19 20  1  0
 20 21  1  0
 21 22  1  0
 22 23  1  0
 23 24  1  0
 24 25  1  0
 25 26  1  0
 26 27  1  0
 27 28  1  0
 28 29  1  0
 29 30  1  0
 30 31  1  0
 31 32  1  0
 32 33  1  0
 33 34  1  0
 34 35  1  0
 35 36  1  0
 36 37  1  0
 37 38  1  0
 38 39  1  0
 39 40  1  0
 40 41  1  0
 41 42  1  0
 42 43  1  0
 43 44  1  0
 44 45  1  0
 45 46  1  0
 46 47  1  0
 47 48  1  0
 48 49  1  0
 49 50  1  0
 50 51  1  0
 51 52  1  0
 52 53  1  0
 53 54  1  0
 54 55  1  0
 55 56  1  0
 56 57  1  0
 57 58  1  0
 58 59  2  0
 59 60  1  0
 60 61  2  0
 61 62  1  0
 62 63  2  0
 63 64  1  0
 64 65  2  0
 65 66  1  0
 66 67  2  0
 67 68  1  0
 68 69  2  0
 69 70  1  0
 70 71  2  0
 71 72  1  0
 72 73  2  0
 73 74  1  0
 74 75  2  0
 75  2  1  0
 75 56  1  0
M  END
>  <Title>  (785) 
idABCGgen14

$$$$

     RDKit          2D

 12 12  0  0  0  0  0  0  0  0999 V2000
    7.5000   -2.5981    0.0000 C   0  0  0  0  0  0  0  0  0  0  0  0
    6.0000   -2.5981    0.0000 C   0  0  0  0  0  0  0  0  0  0  0  0
    5.2500   -1.2990    0.0000 C   0  0  0  0  0  0  0  0  0  0  0  0
    3.7500   -1.2990    0.0000 N   0  0  0  0  0  0  0  0  0  0  0  0
    3.0000    0.0000    0.0000 C   0  0  0  0  0  0  0  0  0  0  0  0
    1.5000    0.0000    0.0000 C   0  0  0  0  0  0  0  0  0  0  0  0
    0.7500   -1.2990    0.0000 C   0  0  0  0  0  0  0  0  0  0  0  0
   -0.7500   -1.2990    0.0000 C   0  0  0  0  0  0  0  0  0  0  0  0
   -1.5000    0.0000    0.0000 C   0  0  0  0  0  0  0  0  0  0  0  0
   -3.0000    0.0000    0.0000 C   0  0  0  0  0  0  0  0  0  0  0  0
   -0.7500    1.2990    0.0000 C   0  0  0  0  0  0  0  0  0  0  0  0
    0.7500    1.2990    0.0000 C   0  0  0  0  0  0  0  0  0  0  0  0
  1  2  1  0
  2  3  2  3
  3  4  1  0
  4  5  1  0
  5  6  1  0
  6  7  2  0
  7  8  1  0
  8  9  2  0
  9 10  1  0
  9 11  1  0
 11 12  2  0
 12  6  1  0
M  END
>  <Title>  (786) 
idABCHgen14

$$$$

     RDKit          2D

  7  7  0  0  0  0  0  0  0  0999 V2000
    4.2760   -0.0000    0.0000 N   0  0  0  0  0  0  0  0  0  0  0  0
    2.7760    0.0000    0.0000 C   0  0  0  0  0  0  0  0  0  0  0  0
    1.2760    0.0000    0.0000 C   0  0  0  0  0  0  0  0  0  0  0  0
    0.3943    1.2135    0.0000 C   0  0  0  0  0  0  0  0  0  0  0  0
   -1.0323    0.7500    0.0000 C   0  0  0  0  0  0  0  0  0  0  0  0
   -1.0323   -0.7500    0.0000 C   0  0  0  0  0  0  0  0  0  0  0  0
    0.3943   -1.2135    0.0000 N   0  0  0  0  0  0  0  0  0  0  0  0
  1  2  3  0
  2  3  1  0
  3  4  2  0
  4  5  1  0
  5  6  1  0
  6  7  2  0
  7  3  1  0
M  END
>  <Title>  (787) 
idABCIgen14

$$$$

     RDKit          2D

  8  8  0  0  0  0  0  0  0  0999 V2000
    4.5000    0.0000    0.0000 N   0  0  0  0  0  0  0  0  0  0  0  0
    3.0000    0.0000    0.0000 C   0  0  0  0  0  0  0  0  0  0  0  0
    1.5000    0.0000    0.0000 C   0  0  0  0  0  0  0  0  0  0  0  0
    0.7500   -1.2990    0.0000 C   0  0  0  0  0  0  0  0  0  0  0  0
   -0.7500   -1.2990    0.0000 C   0  0  0  0  0  0  0  0  0  0  0  0
   -1.5000    0.0000    0.0000 C   0  0  0  0  0  0  0  0  0  0  0  0
   -0.7500    1.2990    0.0000 C   0  0  0  0  0  0  0  0  0  0  0  0
    0.7500    1.2990    0.0000 C   0  0  0  0  0  0  0  0  0  0  0  0
  1  2  3  0
  2  3  1  0
  3  4  1  0
  4  5  2  0
  5  6  1  0
  6  7  2  0
  7  8  1  0
  8  3  1  0
M  END
>  <Title>  (788) 
idABCJgen14

$$$$

     RDKit          2D

 41 46  0  0  0  0  0  0  0  0999 V2000
   -1.3240   -6.3062    0.0000 C   0  0  0  0  0  0  0  0  0  0  0  0
   -0.7500   -4.9204    0.0000 C   0  0  0  0  0  0  0  0  0  0  0  0
    0.7500   -4.9204    0.0000 C   0  0  0  0  0  0  0  0  0  0  0  0
    1.8107   -3.8597    0.0000 C   0  0  0  0  0  0  0  0  0  0  0  0
    1.8107   -2.3597    0.0000 C   0  0  0  0  0  0  0  0  0  0  0  0
    3.1965   -1.7857    0.0000 C   0  0  0  0  0  0  0  0  0  0  0  0
    3.3923   -0.2985    0.0000 O   0  0  0  0  0  0  0  0  0  0  0  0
    4.3865   -2.6988    0.0000 N   0  0  0  0  0  0  0  0  0  0  0  0
    5.7723   -2.1248    0.0000 C   0  0  0  0  0  0  0  0  0  0  0  0
    6.1225   -0.6662    0.0000 N   0  0  0  0  0  0  0  0  0  0  0  0
    7.6179   -0.5485    0.0000 N   0  0  0  0  0  0  0  0  0  0  0  0
    8.1919   -1.9344    0.0000 N   0  0  0  0  0  0  0  0  0  0  0  0
    7.0513   -2.9085    0.0000 N   0  0  0  0  0  0  0  0  0  0  0  0
    7.1690   -4.4039    0.0000 C   0  0  0  0  0  0  0  0  0  0  0  0
    8.4479   -5.1877    0.0000 C   0  0  0  0  0  0  0  0  0  0  0  0
    8.0978   -6.6462    0.0000 C   0  0  0  0  0  0  0  0  0  0  0  0
    6.6024   -6.7639    0.0000 C   0  0  0  0  0  0  0  0  0  0  0  0
    5.8186   -8.0429    0.0000 O   0  0  0  0  0  0  0  0  0  0  0  0
    4.3192   -8.0036    0.0000 C   0  0  0  0  0  0  0  0  0  0  0  0
    3.6034   -6.6854    0.0000 O   0  0  0  0  0  0  0  0  0  0  0  0
    3.5354   -9.2826    0.0000 N   0  0  0  0  0  0  0  0  0  0  0  0
    2.0359   -9.2433    0.0000 C   0  0  0  0  0  0  0  0  0  0  0  0
    1.3202   -7.9251    0.0000 N   0  0  0  0  0  0  0  0  0  0  0  0
   -0.1793   -7.8858    0.0000 N   0  0  0  0  0  0  0  0  0  0  0  0
   -0.9630   -9.1648    0.0000 N   0  0  0  0  0  0  0  0  0  0  0  0
   -0.2473  -10.4830    0.0000 N   0  0  0  0  0  0  0  0  0  0  0  0
    1.2522  -10.5223    0.0000 N   0  0  0  0  0  0  0  0  0  0  0  0
    6.0284   -5.3781    0.0000 C   0  0  0  0  0  0  0  0  0  0  0  0
    4.5698   -5.0279    0.0000 O   0  0  0  0  0  0  0  0  0  0  0  0
    0.7500   -1.2990    0.0000 C   0  0  0  0  0  0  0  0  0  0  0  0
    1.5000    0.0000    0.0000 C   0  0  0  0  0  0  0  0  0  0  0  0
    0.7500    1.2990    0.0000 C   0  0  0  0  0  0  0  0  0  0  0  0
   -0.7500    1.2990    0.0000 C   0  0  0  0  0  0  0  0  0  0  0  0
   -1.5000    0.0000    0.0000 C   0  0  0  0  0  0  0  0  0  0  0  0
   -0.7500   -1.2990    0.0000 C   0  0  0  0  0  0  0  0  0  0  0  0
   -1.8107   -2.3597    0.0000 C   0  0  0  0  0  0  0  0  0  0  0  0
   -3.1097   -1.6097    0.0000 C   0  0  0  0  0  0  0  0  0  0  0  0
   -4.4087   -2.3597    0.0000 C   0  0  0  0  0  0  0  0  0  0  0  0
   -4.4087   -3.8597    0.0000 C   0  0  0  0  0  0  0  0  0  0  0  0
   -3.1097   -4.6097    0.0000 C   0  0  0  0  0  0  0  0  0  0  0  0
   -1.8107   -3.8597    0.0000 C   0  0  0  0  0  0  0  0  0  0  0  0
  1  2  1  0
  2  3  1  0
  3  4  2  0
  4  5  1  0
  5  6  1  0
  6  7  2  0
  6  8  1  0
  8  9  1  0
  9 10  2  0
 10 11  1  0
 11 12  2  0
 12 13  1  0
 13 14  1  0
 14 15  2  0
 15 16  1  0
 16 17  2  0
 17 18  1  0
 18 19  1  0
 19 20  2  0
 19 21  1  0
 21 22  1  0
 22 23  2  0
 23 24  1  0
 24 25  2  0
 25 26  1  0
 26 27  2  0
 17 28  1  0
 28 29  2  0
  5 30  1  0
 30 31  2  0
 31 32  1  0
 32 33  2  0
 33 34  1  0
 34 35  2  0
 35 36  1  0
 36 37  2  0
 37 38  1  0
 38 39  2  0
 39 40  1  0
 40 41  2  0
 41  2  1  0
 13  9  1  0
 28 14  1  0
 35 30  1  0
 41 36  1  0
 27 22  1  0
M  END
>  <Title>  (789) 
idABCKgen14

$$$$

     RDKit          2D

  8  8  0  0  0  0  0  0  0  0999 V2000
    3.7500   -1.2990    0.0000 C   0  0  0  0  0  0  0  0  0  0  0  0
    3.0000    0.0000    0.0000 C   0  0  0  0  0  0  0  0  0  0  0  0
    1.5000    0.0000    0.0000 C   0  0  0  0  0  0  0  0  0  0  0  0
    0.7500   -1.2990    0.0000 C   0  0  0  0  0  0  0  0  0  0  0  0
   -0.7500   -1.2990    0.0000 C   0  0  0  0  0  0  0  0  0  0  0  0
   -1.5000    0.0000    0.0000 C   0  0  0  0  0  0  0  0  0  0  0  0
   -0.7500    1.2990    0.0000 C   0  0  0  0  0  0  0  0  0  0  0  0
    0.7500    1.2990    0.0000 C   0  0  0  0  0  0  0  0  0  0  0  0
  1  2  1  0
  2  3  1  0
  3  4  1  0
  4  5  2  0
  5  6  1  0
  6  7  1  0
  7  8  1  0
  8  3  1  0
M  END
>  <Title>  (790) 
idABCLgen14

$$$$

     RDKit          2D

 11 11  0  0  0  0  0  0  0  0999 V2000
    3.0000   -2.5981    0.0000 O   0  0  0  0  0  0  0  0  0  0  0  0
    3.7500   -1.2990    0.0000 C   0  0  0  0  0  0  0  0  0  0  0  0
    5.2500   -1.2990    0.0000 O   0  0  0  0  0  0  0  0  0  0  0  0
    3.0000    0.0000    0.0000 N   0  0  0  0  0  0  0  0  0  0  0  0
    1.5000    0.0000    0.0000 C   0  0  0  0  0  0  0  0  0  0  0  0
    0.7500   -1.2990    0.0000 C   0  0  0  0  0  0  0  0  0  0  0  0
   -0.7500   -1.2990    0.0000 C   0  0  0  0  0  0  0  0  0  0  0  0
   -1.5000    0.0000    0.0000 C   0  0  0  0  0  0  0  0  0  0  0  0
   -3.0000    0.0000    0.0000 F   0  0  0  0  0  0  0  0  0  0  0  0
   -0.7500    1.2990    0.0000 C   0  0  0  0  0  0  0  0  0  0  0  0
    0.7500    1.2990    0.0000 C   0  0  0  0  0  0  0  0  0  0  0  0
  1  2  2  0
  2  3  1  0
  2  4  1  0
  4  5  1  0
  5  6  2  0
  6  7  1  0
  7  8  2  0
  8  9  1  0
  8 10  1  0
 10 11  2  0
 11  5  1  0
M  END
>  <Title>  (791) 
idABCMgen14

$$$$

     RDKit          2D

 17 18  0  0  0  0  0  0  0  0999 V2000
   -2.7853   -7.3950    0.0000 C   0  0  0  0  0  0  0  0  0  0  0  0
   -1.4863   -6.6450    0.0000 C   0  0  0  0  0  0  0  0  0  0  0  0
   -1.4863   -5.1450    0.0000 O   0  0  0  0  0  0  0  0  0  0  0  0
   -0.1873   -7.3950    0.0000 N   0  0  0  0  0  0  0  0  0  0  0  0
    1.1118   -6.6450    0.0000 C   0  0  0  0  0  0  0  0  0  0  0  0
    1.5000   -5.1962    0.0000 C   0  0  0  0  0  0  0  0  0  0  0  0
    0.7500   -3.8971    0.0000 C   0  0  0  0  0  0  0  0  0  0  0  0
    1.5000   -2.5981    0.0000 O   0  0  0  0  0  0  0  0  0  0  0  0
    0.7500   -1.2990    0.0000 C   0  0  0  0  0  0  0  0  0  0  0  0
    1.5000    0.0000    0.0000 C   0  0  0  0  0  0  0  0  0  0  0  0
    0.7500    1.2990    0.0000 C   0  0  0  0  0  0  0  0  0  0  0  0
   -0.7500    1.2990    0.0000 C   0  0  0  0  0  0  0  0  0  0  0  0
   -1.5000    2.5981    0.0000 O   0  0  0  0  0  0  0  0  0  0  0  0
   -1.5000    0.0000    0.0000 C   0  0  0  0  0  0  0  0  0  0  0  0
   -0.7500   -1.2990    0.0000 C   0  0  0  0  0  0  0  0  0  0  0  0
    2.9489   -5.5844    0.0000 C   0  0  0  0  0  0  0  0  0  0  0  0
    2.5607   -7.0333    0.0000 C   0  0  0  0  0  0  0  0  0  0  0  0
  1  2  1  0
  2  3  2  0
  2  4  1  0
  4  5  1  0
  5  6  2  0
  6  7  1  0
  7  8  1  0
  8  9  1  0
  9 10  2  0
 10 11  1  0
 11 12  2  0
 12 13  1  0
 12 14  1  0
 14 15  2  0
  6 16  1  0
 16 17  2  0
 17  5  1  0
 15  9  1  0
M  END
>  <Title>  (792) 
idABCNgen14

$$$$

     RDKit          2D

 19 20  0  0  0  0  0  0  0  0999 V2000
    3.0000    0.0000    0.0000 C   0  0  0  0  0  0  0  0  0  0  0  0
    1.5000    0.0000    0.0000 C   0  0  0  0  0  0  0  0  0  0  0  0
    0.7500   -1.2990    0.0000 C   0  0  0  0  0  0  0  0  0  0  0  0
   -0.7500   -1.2990    0.0000 C   0  0  0  0  0  0  0  0  0  0  0  0
   -1.5000    0.0000    0.0000 C   0  0  0  0  0  0  0  0  0  0  0  0
   -0.7500    1.2990    0.0000 C   0  0  0  0  0  0  0  0  0  0  0  0
    0.7500    1.2990    0.0000 C   0  0  0  0  0  0  0  0  0  0  0  0
    1.5000    2.5981    0.0000 O   0  0  0  0  0  0  0  0  0  0  0  0
    0.7500    3.8971    0.0000 C   0  0  0  0  0  0  0  0  0  0  0  0
    1.5000    5.1962    0.0000 C   0  0  0  0  0  0  0  0  0  0  0  0
    3.0000    5.1962    0.0000 O   0  0  0  0  0  0  0  0  0  0  0  0
    0.7500    6.4952    0.0000 N   0  0  0  0  0  0  0  0  0  0  0  0
    1.5000    7.7942    0.0000 C   0  0  0  0  0  0  0  0  0  0  0  0
    0.7500    9.0933    0.0000 C   0  0  0  0  0  0  0  0  0  0  0  0
    1.5000   10.3923    0.0000 C   0  0  0  0  0  0  0  0  0  0  0  0
    0.7500   11.6913    0.0000 C   0  0  0  0  0  0  0  0  0  0  0  0
   -0.7500   11.6913    0.0000 C   0  0  0  0  0  0  0  0  0  0  0  0
   -1.5000   10.3923    0.0000 N   0  0  0  0  0  0  0  0  0  0  0  0
   -0.7500    9.0933    0.0000 N   0  0  0  0  0  0  0  0  0  0  0  0
  1  2  1  0
  2  3  1  0
  3  4  1  0
  4  5  1  0
  5  6  1  0
  6  7  1  0
  7  8  1  0
  8  9  1  0
  9 10  1  0
 10 11  2  0
 10 12  1  0
 12 13  1  0
 13 14  1  0
 14 15  2  0
 15 16  1  0
 16 17  2  0
 17 18  1  0
 18 19  2  0
  7  2  1  0
 19 14  1  0
M  END
>  <Title>  (793) 
idABCOgen14

$$$$

     RDKit          2D

 97 98  0  0  0  0  0  0  0  0999 V2000
    9.1442   -4.4231    0.0000 C   0  0  0  0  0  0  0  0  0  0  0  0
    9.9408   -4.4547    0.0000 C   0  0  0  0  0  0  0  0  0  0  0  0
    9.9685   -5.9545    0.0000 C   0  0  0  0  0  0  0  0  0  0  0  0
   10.1702   -7.4408    0.0000 C   0  0  0  0  0  0  0  0  0  0  0  0
   10.5431   -8.8938    0.0000 C   0  0  0  0  0  0  0  0  0  0  0  0
   11.0821  -10.2936    0.0000 C   0  0  0  0  0  0  0  0  0  0  0  0
   11.7800  -11.6213    0.0000 C   0  0  0  0  0  0  0  0  0  0  0  0
   12.6273  -12.8591    0.0000 C   0  0  0  0  0  0  0  0  0  0  0  0
   13.6126  -13.9901    0.0000 C   0  0  0  0  0  0  0  0  0  0  0  0
   14.7226  -14.9991    0.0000 C   0  0  0  0  0  0  0  0  0  0  0  0
   15.9421  -15.8724    0.0000 C   0  0  0  0  0  0  0  0  0  0  0  0
   17.2548  -16.5982    0.0000 C   0  0  0  0  0  0  0  0  0  0  0  0
   18.6429  -17.1668    0.0000 C   0  0  0  0  0  0  0  0  0  0  0  0
   20.0876  -17.5703    0.0000 C   0  0  0  0  0  0  0  0  0  0  0  0
   21.5694  -17.8034    0.0000 C   0  0  0  0  0  0  0  0  0  0  0  0
   23.0682  -17.8629    0.0000 C   0  0  0  0  0  0  0  0  0  0  0  0
   24.5638  -17.7479    0.0000 C   0  0  0  0  0  0  0  0  0  0  0  0
   26.0359  -17.4602    0.0000 C   0  0  0  0  0  0  0  0  0  0  0  0
   27.4647  -17.0034    0.0000 C   0  0  0  0  0  0  0  0  0  0  0  0
   28.8308  -16.3839    0.0000 C   0  0  0  0  0  0  0  0  0  0  0  0
   30.1157  -15.6100    0.0000 C   0  0  0  0  0  0  0  0  0  0  0  0
   31.3021  -14.6922    0.0000 C   0  0  0  0  0  0  0  0  0  0  0  0
   32.3740  -13.6428    0.0000 C   0  0  0  0  0  0  0  0  0  0  0  0
   33.3167  -12.4761    0.0000 C   0  0  0  0  0  0  0  0  0  0  0  0
   34.1176  -11.2078    0.0000 C   0  0  0  0  0  0  0  0  0  0  0  0
   34.7659   -9.8551    0.0000 C   0  0  0  0  0  0  0  0  0  0  0  0
   35.2527   -8.4363    0.0000 C   0  0  0  0  0  0  0  0  0  0  0  0
   35.5716   -6.9706    0.0000 C   0  0  0  0  0  0  0  0  0  0  0  0
   35.7181   -5.4778    0.0000 C   0  0  0  0  0  0  0  0  0  0  0  0
   35.6904   -3.9780    0.0000 C   0  0  0  0  0  0  0  0  0  0  0  0
   35.4887   -2.4916    0.0000 C   0  0  0  0  0  0  0  0  0  0  0  0
   35.1158   -1.0387    0.0000 C   0  0  0  0  0  0  0  0  0  0  0  0
   34.5768    0.3611    0.0000 C   0  0  0  0  0  0  0  0  0  0  0  0
   33.8789    1.6888    0.0000 C   0  0  0  0  0  0  0  0  0  0  0  0
   33.0315    2.9266    0.0000 C   0  0  0  0  0  0  0  0  0  0  0  0
   32.0463    4.0576    0.0000 C   0  0  0  0  0  0  0  0  0  0  0  0
   30.9363    5.0666    0.0000 C   0  0  0  0  0  0  0  0  0  0  0  0
   29.7168    5.9399    0.0000 C   0  0  0  0  0  0  0  0  0  0  0  0
   28.4041    6.6657    0.0000 C   0  0  0  0  0  0  0  0  0  0  0  0
   27.0160    7.2343    0.0000 C   0  0  0  0  0  0  0  0  0  0  0  0
   25.5713    7.6378    0.0000 C   0  0  0  0  0  0  0  0  0  0  0  0
   24.0895    7.8709    0.0000 C   0  0  0  0  0  0  0  0  0  0  0  0
   22.5907    7.9304    0.0000 C   0  0  0  0  0  0  0  0  0  0  0  0
   21.0951    7.8155    0.0000 C   0  0  0  0  0  0  0  0  0  0  0  0
   19.6230    7.5277    0.0000 C   0  0  0  0  0  0  0  0  0  0  0  0
   18.1942    7.0710    0.0000 C   0  0  0  0  0  0  0  0  0  0  0  0
   16.8281    6.4514    0.0000 C   0  0  0  0  0  0  0  0  0  0  0  0
   15.5432    5.6775    0.0000 C   0  0  0  0  0  0  0  0  0  0  0  0
   14.3568    4.7597    0.0000 C   0  0  0  0  0  0  0  0  0  0  0  0
   13.2849    3.7103    0.0000 C   0  0  0  0  0  0  0  0  0  0  0  0
   12.3422    2.5436    0.0000 C   0  0  0  0  0  0  0  0  0  0  0  0
   11.5413    1.2753    0.0000 C   0  0  0  0  0  0  0  0  0  0  0  0
   10.8930   -0.0774    0.0000 C   0  0  0  0  0  0  0  0  0  0  0  0
   10.4061   -1.4962    0.0000 C   0  0  0  0  0  0  0  0  0  0  0  0
    9.8132   -0.0000    0.0000 C   0  0  0  0  0  0  0  0  0  0  0  0
    9.7133    1.3966    0.0000 C   0  0  0  0  0  0  0  0  0  0  0  0
    9.4157    2.7647    0.0000 C   0  0  0  0  0  0  0  0  0  0  0  0
    8.9264    4.0765    0.0000 C   0  0  0  0  0  0  0  0  0  0  0  0
    8.2554    5.3054    0.0000 C   0  0  0  0  0  0  0  0  0  0  0  0
    7.4163    6.4263    0.0000 C   0  0  0  0  0  0  0  0  0  0  0  0
    6.4263    7.4163    0.0000 C   0  0  0  0  0  0  0  0  0  0  0  0
    5.3054    8.2554    0.0000 C   0  0  0  0  0  0  0  0  0  0  0  0
    4.0765    8.9264    0.0000 C   0  0  0  0  0  0  0  0  0  0  0  0
    2.7647    9.4157    0.0000 C   0  0  0  0  0  0  0  0  0  0  0  0
    1.3966    9.7133    0.0000 C   0  0  0  0  0  0  0  0  0  0  0  0
    0.0000    9.8132    0.0000 C   0  0  0  0  0  0  0  0  0  0  0  0
   -1.3966    9.7133    0.0000 C   0  0  0  0  0  0  0  0  0  0  0  0
   -2.7647    9.4157    0.0000 C   0  0  0  0  0  0  0  0  0  0  0  0
   -4.0765    8.9264    0.0000 C   0  0  0  0  0  0  0  0  0  0  0  0
   -5.3054    8.2554    0.0000 C   0  0  0  0  0  0  0  0  0  0  0  0
   -6.4263    7.4163    0.0000 C   0  0  0  0  0  0  0  0  0  0  0  0
   -7.4163    6.4263    0.0000 C   0  0  0  0  0  0  0  0  0  0  0  0
   -8.2554    5.3054    0.0000 C   0  0  0  0  0  0  0  0  0  0  0  0
   -8.9264    4.0765    0.0000 C   0  0  0  0  0  0  0  0  0  0  0  0
   -9.4157    2.7647    0.0000 C   0  0  0  0  0  0  0  0  0  0  0  0
   -9.7133    1.3966    0.0000 C   0  0  0  0  0  0  0  0  0  0  0  0
   -9.8132    0.0000    0.0000 C   0  0  0  0  0  0  0  0  0  0  0  0
   -9.7133   -1.3966    0.0000 C   0  0  0  0  0  0  0  0  0  0  0  0
   -9.4157   -2.7647    0.0000 C   0  0  0  0  0  0  0  0  0  0  0  0
   -8.9264   -4.0765    0.0000 C   0  0  0  0  0  0  0  0  0  0  0  0
   -8.2554   -5.3054    0.0000 C   0  0  0  0  0  0  0  0  0  0  0  0
   -7.4163   -6.4263    0.0000 C   0  0  0  0  0  0  0  0  0  0  0  0
   -6.4263   -7.4163    0.0000 C   0  0  0  0  0  0  0  0  0  0  0  0
   -5.3054   -8.2554    0.0000 C   0  0  0  0  0  0  0  0  0  0  0  0
   -4.0765   -8.9264    0.0000 C   0  0  0  0  0  0  0  0  0  0  0  0
   -2.7647   -9.4157    0.0000 C   0  0  0  0  0  0  0  0  0  0  0  0
   -1.3966   -9.7133    0.0000 C   0  0  0  0  0  0  0  0  0  0  0  0
   -0.0000   -9.8132    0.0000 C   0  0  0  0  0  0  0  0  0  0  0  0
    1.3966   -9.7133    0.0000 C   0  0  0  0  0  0  0  0  0  0  0  0
    2.7647   -9.4157    0.0000 C   0  0  0  0  0  0  0  0  0  0  0  0
    4.0765   -8.9264    0.0000 C   0  0  0  0  0  0  0  0  0  0  0  0
    5.3054   -8.2554    0.0000 C   0  0  0  0  0  0  0  0  0  0  0  0
    6.4263   -7.4163    0.0000 C   0  0  0  0  0  0  0  0  0  0  0  0
    7.4163   -6.4263    0.0000 C   0  0  0  0  0  0  0  0  0  0  0  0
    8.2554   -5.3054    0.0000 C   0  0  0  0  0  0  0  0  0  0  0  0
    8.9264   -4.0765    0.0000 C   0  0  0  0  0  0  0  0  0  0  0  0
   10.0873   -2.9619    0.0000 C   0  0  0  0  0  0  0  0  0  0  0  0
  1  2  1  0
  2  3  1  0
  3  4  1  0
  4  5  1  0
  5  6  1  0
  6  7  1  0
  7  8  1  0
  8  9  1  0
  9 10  1  0
 10 11  1  0
 11 12  1  0
 12 13  1  0
 13 14  1  0
 14 15  1  0
 15 16  1  0
 16 17  1  0
 17 18  1  0
 18 19  1  0
 19 20  1  0
 20 21  1  0
 21 22  1  0
 22 23  1  0
 23 24  1  0
 24 25  1  0
 25 26  1  0
 26 27  1  0
 27 28  1  0
 28 29  1  0
 29 30  1  0
 30 31  1  0
 31 32  1  0
 32 33  1  0
 33 34  1  0
 34 35  1  0
 35 36  1  0
 36 37  1  0
 37 38  1  0
 38 39  1  0
 39 40  1  0
 40 41  1  0
 41 42  1  0
 42 43  1  0
 43 44  1  0
 44 45  1  0
 45 46  1  0
 46 47  1  0
 47 48  1  0
 48 49  1  0
 49 50  1  0
 50 51  1  0
 51 52  1  0
 52 53  1  0
 53 54  1  0
 54 55  1  0
 55 56  1  0
 56 57  1  0
 57 58  1  0
 58 59  1  0
 59 60  1  0
 60 61  1  0
 61 62  1  0
 62 63  1  0
 63 64  1  0
 64 65  1  0
 65 66  1  0
 66 67  1  0
 67 68  1  0
 68 69  1  0
 69 70  1  0
 70 71  1  0
 71 72  1  0
 72 73  1  0
 73 74  1  0
 74 75  1  0
 75 76  1  0
 76 77  1  0
 77 78  1  0
 78 79  1  0
 79 80  1  0
 80 81  1  0
 81 82  1  0
 82 83  1  0
 83 84  1  0
 84 85  2  0
 85 86  1  0
 86 87  2  0
 87 88  1  0
 88 89  2  0
 89 90  1  0
 90 91  2  0
 91 92  1  0
 92 93  2  0
 93 94  1  0
 94 95  2  0
 95 96  1  0
 96 97  2  0
 97  2  1  0
 97 54  1  0
M  END
>  <Title>  (794) 
idABCPgen14

$$$$

     RDKit          2D

 37 41  0  0  0  0  0  0  0  0999 V2000
   -3.1981   -1.5132    0.0000 C   0  0  0  0  0  0  0  0  0  0  0  0
   -1.8991   -2.2632    0.0000 C   0  0  0  0  0  0  0  0  0  0  0  0
   -2.1595   -3.7404    0.0000 C   0  0  0  0  0  0  0  0  0  0  0  0
   -1.4095   -5.0395    0.0000 C   0  0  0  0  0  0  0  0  0  0  0  0
   -0.0000   -5.5525    0.0000 C   0  0  0  0  0  0  0  0  0  0  0  0
    1.4095   -5.0395    0.0000 C   0  0  0  0  0  0  0  0  0  0  0  0
    2.1595   -3.7404    0.0000 C   0  0  0  0  0  0  0  0  0  0  0  0
    1.8991   -2.2632    0.0000 C   0  0  0  0  0  0  0  0  0  0  0  0
    3.1981   -1.5132    0.0000 C   0  0  0  0  0  0  0  0  0  0  0  0
    3.1981   -0.0132    0.0000 O   0  0  0  0  0  0  0  0  0  0  0  0
    4.4971   -2.2632    0.0000 N   0  0  0  0  0  0  0  0  0  0  0  0
    5.7962   -1.5132    0.0000 C   0  0  0  0  0  0  0  0  0  0  0  0
    5.9530   -0.0214    0.0000 N   0  0  0  0  0  0  0  0  0  0  0  0
    7.4202    0.2904    0.0000 N   0  0  0  0  0  0  0  0  0  0  0  0
    8.1702   -1.0086    0.0000 N   0  0  0  0  0  0  0  0  0  0  0  0
    7.1665   -2.1233    0.0000 N   0  0  0  0  0  0  0  0  0  0  0  0
    7.4784   -3.5905    0.0000 N   0  0  0  0  0  0  0  0  0  0  0  0
    8.8487   -4.2007    0.0000 C   0  0  0  0  0  0  0  0  0  0  0  0
    8.6919   -5.6924    0.0000 C   0  0  0  0  0  0  0  0  0  0  0  0
    7.2247   -6.0043    0.0000 N   0  0  0  0  0  0  0  0  0  0  0  0
    6.6146   -7.3746    0.0000 C   0  0  0  0  0  0  0  0  0  0  0  0
    7.4962   -8.5881    0.0000 O   0  0  0  0  0  0  0  0  0  0  0  0
    5.1228   -7.5314    0.0000 N   0  0  0  0  0  0  0  0  0  0  0  0
    4.5127   -8.9017    0.0000 C   0  0  0  0  0  0  0  0  0  0  0  0
    3.0209   -9.0585    0.0000 N   0  0  0  0  0  0  0  0  0  0  0  0
    2.4108  -10.4288    0.0000 N   0  0  0  0  0  0  0  0  0  0  0  0
    3.2925  -11.6424    0.0000 N   0  0  0  0  0  0  0  0  0  0  0  0
    4.7843  -11.4856    0.0000 N   0  0  0  0  0  0  0  0  0  0  0  0
    5.3944  -10.1153    0.0000 N   0  0  0  0  0  0  0  0  0  0  0  0
    6.4747   -4.7053    0.0000 C   0  0  0  0  0  0  0  0  0  0  0  0
    4.9829   -4.5485    0.0000 O   0  0  0  0  0  0  0  0  0  0  0  0
    0.7500   -1.2990    0.0000 C   0  0  0  0  0  0  0  0  0  0  0  0
    1.5000    0.0000    0.0000 C   0  0  0  0  0  0  0  0  0  0  0  0
    0.7500    1.2990    0.0000 C   0  0  0  0  0  0  0  0  0  0  0  0
   -0.7500    1.2990    0.0000 C   0  0  0  0  0  0  0  0  0  0  0  0
   -1.5000    0.0000    0.0000 C   0  0  0  0  0  0  0  0  0  0  0  0
   -0.7500   -1.2990    0.0000 C   0  0  0  0  0  0  0  0  0  0  0  0
  1  2  1  0
  2  3  1  0
  3  4  1  0
  4  5  1  0
  5  6  1  0
  6  7  1  0
  7  8  1  0
  8  9  1  0
  9 10  2  0
  9 11  1  0
 11 12  1  0
 12 13  2  0
 13 14  1  0
 14 15  2  0
 15 16  1  0
 16 17  1  0
 17 18  1  0
 18 19  1  0
 19 20  1  0
 20 21  1  0
 21 22  2  0
 21 23  1  0
 23 24  1  0
 24 25  2  0
 25 26  1  0
 26 27  2  0
 27 28  1  0
 28 29  2  0
 20 30  1  0
 30 31  2  0
  8 32  1  0
 32 33  2  0
 33 34  1  0
 34 35  2  0
 35 36  1  0
 36 37  2  0
 37  2  1  0
 16 12  1  0
 30 17  1  0
 37 32  1  0
 29 24  1  0
M  END
>  <Title>  (795) 
idABCQgen14

$$$$

     RDKit          2D

 10 10  0  0  0  0  0  0  0  0999 V2000
    5.7760   -2.5981    0.0000 C   0  0  0  0  0  0  0  0  0  0  0  0
    5.0260   -1.2990    0.0000 C   0  0  0  0  0  0  0  0  0  0  0  0
    5.7760    0.0000    0.0000 O   0  0  0  0  0  0  0  0  0  0  0  0
    3.5260   -1.2990    0.0000 N   0  0  0  0  0  0  0  0  0  0  0  0
    2.7760    0.0000    0.0000 C   0  0  0  0  0  0  0  0  0  0  0  0
    1.2760    0.0000    0.0000 C   0  0  0  0  0  0  0  0  0  0  0  0
    0.3943    1.2135    0.0000 C   0  0  0  0  0  0  0  0  0  0  0  0
   -1.0323    0.7500    0.0000 C   0  0  0  0  0  0  0  0  0  0  0  0
   -1.0323   -0.7500    0.0000 C   0  0  0  0  0  0  0  0  0  0  0  0
    0.3943   -1.2135    0.0000 C   0  0  0  0  0  0  0  0  0  0  0  0
  1  2  1  0
  2  3  2  0
  2  4  1  0
  4  5  1  0
  5  6  1  0
  6  7  2  0
  7  8  1  0
  8  9  1  0
  9 10  1  0
 10  6  1  0
M  END
>  <Title>  (796) 
idABCRgen14

$$$$

     RDKit          2D

 11 10  0  0  0  0  0  0  0  0999 V2000
    0.0000    0.0000    0.0000 C   0  0  0  0  0  0  0  0  0  0  0  0
    1.2990    0.7500    0.0000 C   0  0  0  0  0  0  0  0  0  0  0  0
    2.5981   -0.0000    0.0000 C   0  0  0  0  0  0  0  0  0  0  0  0
    3.8971    0.7500    0.0000 C   0  0  0  0  0  0  0  0  0  0  0  0
    3.8971    2.2500    0.0000 O   0  0  0  0  0  0  0  0  0  0  0  0
    5.1962   -0.0000    0.0000 N   0  0  0  0  0  0  0  0  0  0  0  0
    6.4952    0.7500    0.0000 C   0  0  0  0  0  0  0  0  0  0  0  0
    7.7942   -0.0000    0.0000 C   0  0  0  0  0  0  0  0  0  0  0  0
    6.4952    2.2500    0.0000 C   0  0  0  0  0  0  0  0  0  0  0  0
    7.7942    3.0000    0.0000 C   0  0  0  0  0  0  0  0  0  0  0  0
    7.7942    4.5000    0.0000 C   0  0  0  0  0  0  0  0  0  0  0  0
  1  2  1  0
  2  3  1  0
  3  4  1  0
  4  5  2  0
  4  6  1  0
  6  7  1  0
  7  8  1  0
  7  9  1  0
  9 10  1  0
 10 11  1  0
M  END
>  <Title>  (797) 
idABCSgen14

$$$$

     RDKit          2D

 17 16  0  0  0  0  0  0  0  0999 V2000
    0.0000    0.0000    0.0000 C   0  0  0  0  0  0  0  0  0  0  0  0
    1.2990    0.7500    0.0000 C   0  0  0  0  0  0  0  0  0  0  0  0
    2.5981   -0.0000    0.0000 C   0  0  0  0  0  0  0  0  0  0  0  0
    3.8971    0.7500    0.0000 C   0  0  0  0  0  0  0  0  0  0  0  0
    5.1962   -0.0000    0.0000 C   0  0  0  0  0  0  0  0  0  0  0  0
    6.4952    0.7500    0.0000 C   0  0  0  0  0  0  0  0  0  0  0  0
    7.7942   -0.0000    0.0000 C   0  0  0  0  0  0  0  0  0  0  0  0
    9.0933    0.7500    0.0000 C   0  0  0  0  0  0  0  0  0  0  0  0
   10.3923   -0.0000    0.0000 C   0  0  0  0  0  0  0  0  0  0  0  0
   11.6913    0.7500    0.0000 C   0  0  0  0  0  0  0  0  0  0  0  0
   12.9904   -0.0000    0.0000 C   0  0  0  0  0  0  0  0  0  0  0  0
   14.2894    0.7500    0.0000 C   0  0  0  0  0  0  0  0  0  0  0  0
   15.5885   -0.0000    0.0000 C   0  0  0  0  0  0  0  0  0  0  0  0
   16.8875    0.7500    0.0000 C   0  0  0  0  0  0  0  0  0  0  0  0
   18.1865   -0.0000    0.0000 C   0  0  0  0  0  0  0  0  0  0  0  0
   19.4856    0.7500    0.0000 C   0  0  0  0  0  0  0  0  0  0  0  0
   20.7846   -0.0000    0.0000 C   0  0  0  0  0  0  0  0  0  0  0  0
  1  2  1  0
  2  3  1  0
  3  4  1  0
  4  5  1  0
  5  6  1  0
  6  7  1  0
  7  8  1  0
  8  9  1  0
  9 10  1  0
 10 11  1  0
 11 12  1  0
 12 13  1  0
 13 14  1  0
 14 15  1  0
 15 16  1  0
 16 17  1  0
M  END
>  <Title>  (798) 
idABCTgen14

$$$$

     RDKit          2D

  8  8  0  0  0  0  0  0  0  0999 V2000
    4.5000    0.0000    0.0000 C   0  0  0  0  0  0  0  0  0  0  0  0
    3.0000    0.0000    0.0000 C   0  0  0  0  0  0  0  0  0  0  0  0
    1.5000    0.0000    0.0000 C   0  0  0  0  0  0  0  0  0  0  0  0
    0.7500   -1.2990    0.0000 C   0  0  0  0  0  0  0  0  0  0  0  0
   -0.7500   -1.2990    0.0000 O   0  0  0  0  0  0  0  0  0  0  0  0
   -1.5000    0.0000    0.0000 C   0  0  0  0  0  0  0  0  0  0  0  0
   -0.7500    1.2990    0.0000 C   0  0  0  0  0  0  0  0  0  0  0  0
    0.7500    1.2990    0.0000 C   0  0  0  0  0  0  0  0  0  0  0  0
  1  2  3  0
  2  3  1  0
  3  4  2  0
  4  5  1  0
  5  6  1  0
  6  7  1  0
  7  8  2  0
  8  3  1  0
M  END
>  <Title>  (799) 
idABCUgen14

$$$$

     RDKit          2D

 35 39  0  0  0  0  0  0  0  0999 V2000
   -3.1476   -2.1380    0.0000 C   0  0  0  0  0  0  0  0  0  0  0  0
   -1.6852   -2.4718    0.0000 N   0  0  0  0  0  0  0  0  0  0  0  0
   -1.3515   -3.9342    0.0000 C   0  0  0  0  0  0  0  0  0  0  0  0
   -0.0000   -4.5850    0.0000 C   0  0  0  0  0  0  0  0  0  0  0  0
    1.3515   -3.9342    0.0000 C   0  0  0  0  0  0  0  0  0  0  0  0
    1.6852   -2.4718    0.0000 C   0  0  0  0  0  0  0  0  0  0  0  0
    3.1476   -2.1380    0.0000 C   0  0  0  0  0  0  0  0  0  0  0  0
    3.5898   -0.7046    0.0000 O   0  0  0  0  0  0  0  0  0  0  0  0
    4.1679   -3.2376    0.0000 N   0  0  0  0  0  0  0  0  0  0  0  0
    5.6303   -2.9038    0.0000 C   0  0  0  0  0  0  0  0  0  0  0  0
    6.2198   -1.5245    0.0000 N   0  0  0  0  0  0  0  0  0  0  0  0
    7.7138   -1.6590    0.0000 N   0  0  0  0  0  0  0  0  0  0  0  0
    8.0476   -3.1214    0.0000 N   0  0  0  0  0  0  0  0  0  0  0  0
    6.7599   -3.8907    0.0000 N   0  0  0  0  0  0  0  0  0  0  0  0
    6.6254   -5.3847    0.0000 N   0  0  0  0  0  0  0  0  0  0  0  0
    7.7550   -6.3716    0.0000 C   0  0  0  0  0  0  0  0  0  0  0  0
    7.1655   -7.7509    0.0000 C   0  0  0  0  0  0  0  0  0  0  0  0
    5.6715   -7.6164    0.0000 N   0  0  0  0  0  0  0  0  0  0  0  0
    4.6846   -8.7460    0.0000 C   0  0  0  0  0  0  0  0  0  0  0  0
    5.1694  -10.1655    0.0000 O   0  0  0  0  0  0  0  0  0  0  0  0
    3.2129   -8.4561    0.0000 N   0  0  0  0  0  0  0  0  0  0  0  0
    2.2260   -9.5857    0.0000 C   0  0  0  0  0  0  0  0  0  0  0  0
    0.7543   -9.2959    0.0000 N   0  0  0  0  0  0  0  0  0  0  0  0
   -0.2326  -10.4255    0.0000 N   0  0  0  0  0  0  0  0  0  0  0  0
    0.2522  -11.8450    0.0000 N   0  0  0  0  0  0  0  0  0  0  0  0
    1.7239  -12.1348    0.0000 N   0  0  0  0  0  0  0  0  0  0  0  0
    2.7108  -11.0052    0.0000 N   0  0  0  0  0  0  0  0  0  0  0  0
    5.3378   -6.1540    0.0000 C   0  0  0  0  0  0  0  0  0  0  0  0
    3.9585   -5.5645    0.0000 O   0  0  0  0  0  0  0  0  0  0  0  0
    0.7500   -1.2990    0.0000 C   0  0  0  0  0  0  0  0  0  0  0  0
    1.5000    0.0000    0.0000 C   0  0  0  0  0  0  0  0  0  0  0  0
    0.7500    1.2990    0.0000 C   0  0  0  0  0  0  0  0  0  0  0  0
   -0.7500    1.2990    0.0000 C   0  0  0  0  0  0  0  0  0  0  0  0
   -1.5000    0.0000    0.0000 C   0  0  0  0  0  0  0  0  0  0  0  0
   -0.7500   -1.2990    0.0000 C   0  0  0  0  0  0  0  0  0  0  0  0
  1  2  1  0
  2  3  1  0
  3  4  1  0
  4  5  1  0
  5  6  1  0
  6  7  1  0
  7  8  2  0
  7  9  1  0
  9 10  1  0
 10 11  2  0
 11 12  1  0
 12 13  2  0
 13 14  1  0
 14 15  1  0
 15 16  1  0
 16 17  1  0
 17 18  1  0
 18 19  1  0
 19 20  2  0
 19 21  1  0
 21 22  1  0
 22 23  2  0
 23 24  1  0
 24 25  2  0
 25 26  1  0
 26 27  2  0
 18 28  1  0
 28 29  2  0
  6 30  1  0
 30 31  2  0
 31 32  1  0
 32 33  2  0
 33 34  1  0
 34 35  2  0
 35  2  1  0
 14 10  1  0
 28 15  1  0
 35 30  1  0
 27 22  1  0
M  END
>  <Title>  (800) 
idABCVgen14

$$$$

     RDKit          2D

 36 40  0  0  0  0  0  0  0  0999 V2000
   -4.1679   -3.2376    0.0000 C   0  0  0  0  0  0  0  0  0  0  0  0
   -3.1476   -2.1380    0.0000 C   0  0  0  0  0  0  0  0  0  0  0  0
   -1.6852   -2.4718    0.0000 C   0  0  0  0  0  0  0  0  0  0  0  0
   -1.3515   -3.9342    0.0000 C   0  0  0  0  0  0  0  0  0  0  0  0
   -0.0000   -4.5850    0.0000 C   0  0  0  0  0  0  0  0  0  0  0  0
    1.3515   -3.9342    0.0000 C   0  0  0  0  0  0  0  0  0  0  0  0
    1.6852   -2.4718    0.0000 C   0  0  0  0  0  0  0  0  0  0  0  0
    3.1476   -2.1380    0.0000 C   0  0  0  0  0  0  0  0  0  0  0  0
    3.5898   -0.7046    0.0000 O   0  0  0  0  0  0  0  0  0  0  0  0
    4.1679   -3.2376    0.0000 N   0  0  0  0  0  0  0  0  0  0  0  0
    5.6303   -2.9038    0.0000 C   0  0  0  0  0  0  0  0  0  0  0  0
    6.2198   -1.5245    0.0000 N   0  0  0  0  0  0  0  0  0  0  0  0
    7.7138   -1.6590    0.0000 N   0  0  0  0  0  0  0  0  0  0  0  0
    8.0476   -3.1214    0.0000 N   0  0  0  0  0  0  0  0  0  0  0  0
    6.7599   -3.8907    0.0000 N   0  0  0  0  0  0  0  0  0  0  0  0
    6.6254   -5.3847    0.0000 N   0  0  0  0  0  0  0  0  0  0  0  0
    7.7550   -6.3716    0.0000 C   0  0  0  0  0  0  0  0  0  0  0  0
    7.1655   -7.7509    0.0000 C   0  0  0  0  0  0  0  0  0  0  0  0
    5.6715   -7.6164    0.0000 N   0  0  0  0  0  0  0  0  0  0  0  0
    4.6846   -8.7460    0.0000 C   0  0  0  0  0  0  0  0  0  0  0  0
    5.1694  -10.1655    0.0000 O   0  0  0  0  0  0  0  0  0  0  0  0
    3.2129   -8.4561    0.0000 N   0  0  0  0  0  0  0  0  0  0  0  0
    2.2260   -9.5857    0.0000 C   0  0  0  0  0  0  0  0  0  0  0  0
    0.7543   -9.2959    0.0000 N   0  0  0  0  0  0  0  0  0  0  0  0
   -0.2326  -10.4255    0.0000 N   0  0  0  0  0  0  0  0  0  0  0  0
    0.2522  -11.8450    0.0000 N   0  0  0  0  0  0  0  0  0  0  0  0
    1.7239  -12.1348    0.0000 N   0  0  0  0  0  0  0  0  0  0  0  0
    2.7108  -11.0052    0.0000 N   0  0  0  0  0  0  0  0  0  0  0  0
    5.3378   -6.1540    0.0000 C   0  0  0  0  0  0  0  0  0  0  0  0
    3.9585   -5.5645    0.0000 O   0  0  0  0  0  0  0  0  0  0  0  0
    0.7500   -1.2990    0.0000 C   0  0  0  0  0  0  0  0  0  0  0  0
    1.5000    0.0000    0.0000 C   0  0  0  0  0  0  0  0  0  0  0  0
    0.7500    1.2990    0.0000 C   0  0  0  0  0  0  0  0  0  0  0  0
   -0.7500    1.2990    0.0000 C   0  0  0  0  0  0  0  0  0  0  0  0
   -1.5000    0.0000    0.0000 C   0  0  0  0  0  0  0  0  0  0  0  0
   -0.7500   -1.2990    0.0000 C   0  0  0  0  0  0  0  0  0  0  0  0
  1  2  1  0
  2  3  1  0
  3  4  2  0
  4  5  1  0
  5  6  1  0
  6  7  1  0
  7  8  1  0
  8  9  2  0
  8 10  1  0
 10 11  1  0
 11 12  2  0
 12 13  1  0
 13 14  2  0
 14 15  1  0
 15 16  1  0
 16 17  1  0
 17 18  1  0
 18 19  1  0
 19 20  1  0
 20 21  2  0
 20 22  1  0
 22 23  1  0
 23 24  2  0
 24 25  1  0
 25 26  2  0
 26 27  1  0
 27 28  2  0
 19 29  1  0
 29 30  2  0
  7 31  1  0
 31 32  2  0
 32 33  1  0
 33 34  2  0
 34 35  1  0
 35 36  2  0
 36  3  1  0
 15 11  1  0
 29 16  1  0
 36 31  1  0
 28 23  1  0
M  END
>  <Title>  (801) 
idABCWgen14

$$$$

     RDKit          2D

 14 14  0  0  0  0  0  0  0  0999 V2000
    9.0000   -5.1962    0.0000 N   0  0  0  0  0  0  0  0  0  0  0  0
    8.2500   -3.8971    0.0000 C   0  0  0  0  0  0  0  0  0  0  0  0
    7.5000   -2.5981    0.0000 C   0  0  0  0  0  0  0  0  0  0  0  0
    6.0000   -2.5981    0.0000 C   0  0  0  0  0  0  0  0  0  0  0  0
    5.2500   -1.2990    0.0000 C   0  0  0  0  0  0  0  0  0  0  0  0
    6.0000    0.0000    0.0000 O   0  0  0  0  0  0  0  0  0  0  0  0
    3.7500   -1.2990    0.0000 N   0  0  0  0  0  0  0  0  0  0  0  0
    3.0000    0.0000    0.0000 C   0  0  0  0  0  0  0  0  0  0  0  0
    1.5000    0.0000    0.0000 C   0  0  0  0  0  0  0  0  0  0  0  0
    0.7500   -1.2990    0.0000 C   0  0  0  0  0  0  0  0  0  0  0  0
   -0.7500   -1.2990    0.0000 C   0  0  0  0  0  0  0  0  0  0  0  0
   -1.5000    0.0000    0.0000 C   0  0  0  0  0  0  0  0  0  0  0  0
   -0.7500    1.2990    0.0000 N   0  0  0  0  0  0  0  0  0  0  0  0
    0.7500    1.2990    0.0000 C   0  0  0  0  0  0  0  0  0  0  0  0
  1  2  3  0
  2  3  1  0
  3  4  1  0
  4  5  1  0
  5  6  2  0
  5  7  1  0
  7  8  1  0
  8  9  1  0
  9 10  2  0
 10 11  1  0
 11 12  2  0
 12 13  1  0
 13 14  2  0
 14  9  1  0
M  END
>  <Title>  (802) 
idABCXgen14

$$$$

     RDKit          2D

  7  6  0  0  0  0  0  0  0  0999 V2000
    0.0000    0.0000    0.0000 C   0  0  0  0  0  0  0  0  0  0  0  0
    1.2990    0.7500    0.0000 C   0  0  0  0  0  0  0  0  0  0  0  0
    2.5981   -0.0000    0.0000 C   0  0  0  0  0  0  0  0  0  0  0  0
    3.8971    0.7500    0.0000 C   0  0  0  0  0  0  0  0  0  0  0  0
    5.1962   -0.0000    0.0000 C   0  0  0  0  0  0  0  0  0  0  0  0
    6.4952    0.7500    0.0000 C   0  0  0  0  0  0  0  0  0  0  0  0
    7.7942   -0.0000    0.0000 C   0  0  0  0  0  0  0  0  0  0  0  0
  1  2  1  0
  2  3  2  3
  3  4  1  0
  4  5  1  0
  5  6  1  0
  6  7  1  0
M  END
>  <Title>  (803) 
idABCYgen14

$$$$

     RDKit          2D

 34 38  0  0  0  0  0  0  0  0999 V2000
   -3.0000   -2.5981    0.0000 C   0  0  0  0  0  0  0  0  0  0  0  0
   -1.5000   -2.5981    0.0000 C   0  0  0  0  0  0  0  0  0  0  0  0
   -0.7500   -3.8971    0.0000 C   0  0  0  0  0  0  0  0  0  0  0  0
    0.7500   -3.8971    0.0000 C   0  0  0  0  0  0  0  0  0  0  0  0
    1.5000   -2.5981    0.0000 C   0  0  0  0  0  0  0  0  0  0  0  0
    3.0000   -2.5981    0.0000 C   0  0  0  0  0  0  0  0  0  0  0  0
    3.7500   -1.2990    0.0000 O   0  0  0  0  0  0  0  0  0  0  0  0
    3.7500   -3.8971    0.0000 N   0  0  0  0  0  0  0  0  0  0  0  0
    5.2500   -3.8971    0.0000 C   0  0  0  0  0  0  0  0  0  0  0  0
    6.1317   -2.6836    0.0000 N   0  0  0  0  0  0  0  0  0  0  0  0
    7.5583   -3.1471    0.0000 N   0  0  0  0  0  0  0  0  0  0  0  0
    7.5583   -4.6471    0.0000 N   0  0  0  0  0  0  0  0  0  0  0  0
    6.1317   -5.1106    0.0000 N   0  0  0  0  0  0  0  0  0  0  0  0
    5.6682   -6.5372    0.0000 N   0  0  0  0  0  0  0  0  0  0  0  0
    6.5498   -7.7508    0.0000 C   0  0  0  0  0  0  0  0  0  0  0  0
    5.6682   -8.9643    0.0000 C   0  0  0  0  0  0  0  0  0  0  0  0
    4.2416   -8.5008    0.0000 C   0  0  0  0  0  0  0  0  0  0  0  0
    3.0280   -9.3824    0.0000 C   0  0  0  0  0  0  0  0  0  0  0  0
    3.1848  -10.8742    0.0000 O   0  0  0  0  0  0  0  0  0  0  0  0
    1.6577   -8.7723    0.0000 N   0  0  0  0  0  0  0  0  0  0  0  0
    0.4442   -9.6540    0.0000 C   0  0  0  0  0  0  0  0  0  0  0  0
   -0.9261   -9.0439    0.0000 N   0  0  0  0  0  0  0  0  0  0  0  0
   -2.1396   -9.9256    0.0000 N   0  0  0  0  0  0  0  0  0  0  0  0
   -1.9829  -11.4174    0.0000 N   0  0  0  0  0  0  0  0  0  0  0  0
   -0.6125  -12.0275    0.0000 N   0  0  0  0  0  0  0  0  0  0  0  0
    0.6010  -11.1458    0.0000 N   0  0  0  0  0  0  0  0  0  0  0  0
    4.2416   -7.0008    0.0000 C   0  0  0  0  0  0  0  0  0  0  0  0
    3.0280   -6.1191    0.0000 O   0  0  0  0  0  0  0  0  0  0  0  0
    0.7500   -1.2990    0.0000 C   0  0  0  0  0  0  0  0  0  0  0  0
    1.5000    0.0000    0.0000 C   0  0  0  0  0  0  0  0  0  0  0  0
    0.7500    1.2990    0.0000 C   0  0  0  0  0  0  0  0  0  0  0  0
   -0.7500    1.2990    0.0000 C   0  0  0  0  0  0  0  0  0  0  0  0
   -1.5000    0.0000    0.0000 C   0  0  0  0  0  0  0  0  0  0  0  0
   -0.7500   -1.2990    0.0000 C   0  0  0  0  0  0  0  0  0  0  0  0
  1  2  1  0
  2  3  1  0
  3  4  2  0
  4  5  1  0
  5  6  1  0
  6  7  2  0
  6  8  1  0
  8  9  1  0
  9 10  2  0
 10 11  1  0
 11 12  2  0
 12 13  1  0
 13 14  1  0
 14 15  1  0
 15 16  1  0
 16 17  1  0
 17 18  1  0
 18 19  2  0
 18 20  1  0
 20 21  1  0
 21 22  2  0
 22 23  1  0
 23 24  2  0
 24 25  1  0
 25 26  2  0
 17 27  1  0
 27 28  2  0
  5 29  1  0
 29 30  2  0
 30 31  1  0
 31 32  2  0
 32 33  1  0
 33 34  2  0
 34  2  1  0
 13  9  1  0
 27 14  1  0
 34 29  1  0
 26 21  1  0
M  END
>  <Title>  (804) 
idABCZgen14

$$$$

     RDKit          2D

 11 11  0  0  0  0  0  0  0  0999 V2000
    5.2500   -1.2990    0.0000 C   0  0  0  0  0  0  0  0  0  0  0  0
    3.7500   -1.2990    0.0000 C   0  0  0  0  0  0  0  0  0  0  0  0
    3.0000   -2.5981    0.0000 O   0  0  0  0  0  0  0  0  0  0  0  0
    3.0000    0.0000    0.0000 N   0  0  0  0  0  0  0  0  0  0  0  0
    1.5000    0.0000    0.0000 C   0  0  0  0  0  0  0  0  0  0  0  0
    0.7500   -1.2990    0.0000 C   0  0  0  0  0  0  0  0  0  0  0  0
   -0.7500   -1.2990    0.0000 C   0  0  0  0  0  0  0  0  0  0  0  0
   -1.5000    0.0000    0.0000 C   0  0  0  0  0  0  0  0  0  0  0  0
   -3.0000    0.0000    0.0000 F   0  0  0  0  0  0  0  0  0  0  0  0
   -0.7500    1.2990    0.0000 C   0  0  0  0  0  0  0  0  0  0  0  0
    0.7500    1.2990    0.0000 C   0  0  0  0  0  0  0  0  0  0  0  0
  1  2  1  0
  2  3  2  0
  2  4  1  0
  4  5  1  0
  5  6  2  0
  6  7  1  0
  7  8  2  0
  8  9  1  0
  8 10  1  0
 10 11  2  0
 11  5  1  0
M  END
>  <Title>  (805) 
idABDAgen14

$$$$

     RDKit          2D

 35 39  0  0  0  0  0  0  0  0999 V2000
   -3.1476   -2.1380    0.0000 C   0  0  0  0  0  0  0  0  0  0  0  0
   -1.6852   -2.4718    0.0000 C   0  0  0  0  0  0  0  0  0  0  0  0
   -1.3515   -3.9342    0.0000 C   0  0  0  0  0  0  0  0  0  0  0  0
   -0.0000   -4.5850    0.0000 C   0  0  0  0  0  0  0  0  0  0  0  0
    1.3515   -3.9342    0.0000 C   0  0  0  0  0  0  0  0  0  0  0  0
    1.6852   -2.4718    0.0000 C   0  0  0  0  0  0  0  0  0  0  0  0
    3.1476   -2.1380    0.0000 C   0  0  0  0  0  0  0  0  0  0  0  0
    3.5898   -0.7046    0.0000 O   0  0  0  0  0  0  0  0  0  0  0  0
    4.1679   -3.2376    0.0000 N   0  0  0  0  0  0  0  0  0  0  0  0
    5.6303   -2.9038    0.0000 C   0  0  0  0  0  0  0  0  0  0  0  0
    6.2198   -1.5245    0.0000 N   0  0  0  0  0  0  0  0  0  0  0  0
    7.7138   -1.6590    0.0000 N   0  0  0  0  0  0  0  0  0  0  0  0
    8.0476   -3.1214    0.0000 N   0  0  0  0  0  0  0  0  0  0  0  0
    6.7599   -3.8907    0.0000 N   0  0  0  0  0  0  0  0  0  0  0  0
    6.6254   -5.3847    0.0000 C   0  0  0  0  0  0  0  0  0  0  0  0
    7.7550   -6.3716    0.0000 C   0  0  0  0  0  0  0  0  0  0  0  0
    7.1655   -7.7509    0.0000 C   0  0  0  0  0  0  0  0  0  0  0  0
    5.6715   -7.6164    0.0000 C   0  0  0  0  0  0  0  0  0  0  0  0
    4.6846   -8.7460    0.0000 C   0  0  0  0  0  0  0  0  0  0  0  0
    5.1694  -10.1655    0.0000 O   0  0  0  0  0  0  0  0  0  0  0  0
    3.2129   -8.4561    0.0000 N   0  0  0  0  0  0  0  0  0  0  0  0
    2.2260   -9.5857    0.0000 C   0  0  0  0  0  0  0  0  0  0  0  0
    0.7543   -9.2959    0.0000 N   0  0  0  0  0  0  0  0  0  0  0  0
   -0.2326  -10.4255    0.0000 N   0  0  0  0  0  0  0  0  0  0  0  0
    0.2522  -11.8450    0.0000 N   0  0  0  0  0  0  0  0  0  0  0  0
    1.7239  -12.1348    0.0000 N   0  0  0  0  0  0  0  0  0  0  0  0
    2.7108  -11.0052    0.0000 N   0  0  0  0  0  0  0  0  0  0  0  0
    5.3378   -6.1540    0.0000 C   0  0  0  0  0  0  0  0  0  0  0  0
    3.9585   -5.5645    0.0000 O   0  0  0  0  0  0  0  0  0  0  0  0
    0.7500   -1.2990    0.0000 C   0  0  0  0  0  0  0  0  0  0  0  0
    1.5000    0.0000    0.0000 C   0  0  0  0  0  0  0  0  0  0  0  0
    0.7500    1.2990    0.0000 C   0  0  0  0  0  0  0  0  0  0  0  0
   -0.7500    1.2990    0.0000 C   0  0  0  0  0  0  0  0  0  0  0  0
   -1.5000    0.0000    0.0000 C   0  0  0  0  0  0  0  0  0  0  0  0
   -0.7500   -1.2990    0.0000 C   0  0  0  0  0  0  0  0  0  0  0  0
  1  2  1  0
  2  3  1  0
  3  4  2  0
  4  5  1  0
  5  6  1  0
  6  7  1  0
  7  8  2  0
  7  9  1  0
  9 10  1  0
 10 11  2  0
 11 12  1  0
 12 13  2  0
 13 14  1  0
 14 15  1  0
 15 16  2  0
 16 17  1  0
 17 18  2  0
 18 19  1  0
 19 20  2  0
 19 21  1  0
 21 22  1  0
 22 23  2  0
 23 24  1  0
 24 25  2  0
 25 26  1  0
 26 27  2  0
 18 28  1  0
 28 29  2  0
  6 30  1  0
 30 31  2  0
 31 32  1  0
 32 33  2  0
 33 34  1  0
 34 35  2  0
 35  2  1  0
 14 10  1  0
 28 15  1  0
 35 30  1  0
 27 22  1  0
M  END
>  <Title>  (806) 
idABDBgen14

$$$$

     RDKit          2D

105106  0  0  0  0  0  0  0  0999 V2000
   -2.1563   -1.0875    0.0000 C   0  0  0  0  0  0  0  0  0  0  0  0
   -2.4849    0.3761    0.0000 C   0  0  0  0  0  0  0  0  0  0  0  0
   -3.9580    0.0932    0.0000 C   0  0  0  0  0  0  0  0  0  0  0  0
   -5.4458   -0.0976    0.0000 C   0  0  0  0  0  0  0  0  0  0  0  0
   -6.9426   -0.1955    0.0000 C   0  0  0  0  0  0  0  0  0  0  0  0
   -8.4426   -0.2002    0.0000 C   0  0  0  0  0  0  0  0  0  0  0  0
   -9.9400   -0.1116    0.0000 C   0  0  0  0  0  0  0  0  0  0  0  0
  -11.4290    0.0699    0.0000 C   0  0  0  0  0  0  0  0  0  0  0  0
  -12.9038    0.3437    0.0000 C   0  0  0  0  0  0  0  0  0  0  0  0
  -14.3587    0.7085    0.0000 C   0  0  0  0  0  0  0  0  0  0  0  0
  -15.7882    1.1632    0.0000 C   0  0  0  0  0  0  0  0  0  0  0  0
  -17.1866    1.7058    0.0000 C   0  0  0  0  0  0  0  0  0  0  0  0
  -18.5486    2.3343    0.0000 C   0  0  0  0  0  0  0  0  0  0  0  0
  -19.8688    3.0463    0.0000 C   0  0  0  0  0  0  0  0  0  0  0  0
  -21.1423    3.8390    0.0000 C   0  0  0  0  0  0  0  0  0  0  0  0
  -22.3640    4.7093    0.0000 C   0  0  0  0  0  0  0  0  0  0  0  0
  -23.5292    5.6539    0.0000 C   0  0  0  0  0  0  0  0  0  0  0  0
  -24.6334    6.6691    0.0000 C   0  0  0  0  0  0  0  0  0  0  0  0
  -25.6724    7.7510    0.0000 C   0  0  0  0  0  0  0  0  0  0  0  0
  -26.6422    8.8954    0.0000 C   0  0  0  0  0  0  0  0  0  0  0  0
  -27.5389   10.0978    0.0000 C   0  0  0  0  0  0  0  0  0  0  0  0
  -28.3591   11.3537    0.0000 C   0  0  0  0  0  0  0  0  0  0  0  0
  -29.0996   12.6582    0.0000 C   0  0  0  0  0  0  0  0  0  0  0  0
  -29.7577   14.0061    0.0000 C   0  0  0  0  0  0  0  0  0  0  0  0
  -30.3306   15.3924    0.0000 C   0  0  0  0  0  0  0  0  0  0  0  0
  -30.8163   16.8116    0.0000 C   0  0  0  0  0  0  0  0  0  0  0  0
  -31.2128   18.2582    0.0000 C   0  0  0  0  0  0  0  0  0  0  0  0
  -31.5185   19.7267    0.0000 C   0  0  0  0  0  0  0  0  0  0  0  0
  -31.7324   21.2114    0.0000 C   0  0  0  0  0  0  0  0  0  0  0  0
  -31.8536   22.7065    0.0000 C   0  0  0  0  0  0  0  0  0  0  0  0
  -31.8816   24.2063    0.0000 C   0  0  0  0  0  0  0  0  0  0  0  0
  -31.8163   25.7048    0.0000 C   0  0  0  0  0  0  0  0  0  0  0  0
  -31.6580   27.1965    0.0000 C   0  0  0  0  0  0  0  0  0  0  0  0
  -31.4072   28.6753    0.0000 C   0  0  0  0  0  0  0  0  0  0  0  0
  -31.0650   30.1358    0.0000 C   0  0  0  0  0  0  0  0  0  0  0  0
  -30.6326   31.5721    0.0000 C   0  0  0  0  0  0  0  0  0  0  0  0
  -30.1118   32.9788    0.0000 C   0  0  0  0  0  0  0  0  0  0  0  0
  -29.5045   34.3504    0.0000 C   0  0  0  0  0  0  0  0  0  0  0  0
  -28.8132   35.6816    0.0000 C   0  0  0  0  0  0  0  0  0  0  0  0
  -28.0404   36.9672    0.0000 C   0  0  0  0  0  0  0  0  0  0  0  0
  -27.1892   38.2023    0.0000 C   0  0  0  0  0  0  0  0  0  0  0  0
  -26.2628   39.3820    0.0000 C   0  0  0  0  0  0  0  0  0  0  0  0
  -25.2649   40.5019    0.0000 C   0  0  0  0  0  0  0  0  0  0  0  0
  -24.1993   41.5576    0.0000 C   0  0  0  0  0  0  0  0  0  0  0  0
  -23.0702   42.5451    0.0000 C   0  0  0  0  0  0  0  0  0  0  0  0
  -21.8818   43.4604    0.0000 C   0  0  0  0  0  0  0  0  0  0  0  0
  -20.6388   44.3000    0.0000 C   0  0  0  0  0  0  0  0  0  0  0  0
  -19.3460   45.0608    0.0000 C   0  0  0  0  0  0  0  0  0  0  0  0
  -18.0085   45.7397    0.0000 C   0  0  0  0  0  0  0  0  0  0  0  0
  -16.6313   46.3341    0.0000 C   0  0  0  0  0  0  0  0  0  0  0  0
  -15.2198   46.8418    0.0000 C   0  0  0  0  0  0  0  0  0  0  0  0
  -13.7795   47.2607    0.0000 C   0  0  0  0  0  0  0  0  0  0  0  0
  -12.3159   47.5893    0.0000 C   0  0  0  0  0  0  0  0  0  0  0  0
  -10.8348   47.8262    0.0000 C   0  0  0  0  0  0  0  0  0  0  0  0
   -9.3417   47.9706    0.0000 C   0  0  0  0  0  0  0  0  0  0  0  0
   -7.8426   48.0220    0.0000 C   0  0  0  0  0  0  0  0  0  0  0  0
   -6.3432   47.9800    0.0000 C   0  0  0  0  0  0  0  0  0  0  0  0
   -4.8493   47.8449    0.0000 C   0  0  0  0  0  0  0  0  0  0  0  0
   -3.3667   47.6171    0.0000 C   0  0  0  0  0  0  0  0  0  0  0  0
   -1.9011   47.2976    0.0000 C   0  0  0  0  0  0  0  0  0  0  0  0
   -0.4582   46.8877    0.0000 C   0  0  0  0  0  0  0  0  0  0  0  0
    0.9564   46.3888    0.0000 C   0  0  0  0  0  0  0  0  0  0  0  0
    2.3373   45.8029    0.0000 C   0  0  0  0  0  0  0  0  0  0  0  0
    3.6790   45.1324    0.0000 C   0  0  0  0  0  0  0  0  0  0  0  0
    4.9765   44.3797    0.0000 C   0  0  0  0  0  0  0  0  0  0  0  0
    6.2247   43.5478    0.0000 C   0  0  0  0  0  0  0  0  0  0  0  0
    7.4187   42.6399    0.0000 C   0  0  0  0  0  0  0  0  0  0  0  0
    8.5540   41.6595    0.0000 C   0  0  0  0  0  0  0  0  0  0  0  0
    9.6262   40.6105    0.0000 C   0  0  0  0  0  0  0  0  0  0  0  0
   10.6310   39.4968    0.0000 C   0  0  0  0  0  0  0  0  0  0  0  0
   11.5647   38.3228    0.0000 C   0  0  0  0  0  0  0  0  0  0  0  0
   12.4236   37.0930    0.0000 C   0  0  0  0  0  0  0  0  0  0  0  0
   13.2043   35.8123    0.0000 C   0  0  0  0  0  0  0  0  0  0  0  0
   13.9039   34.4854    0.0000 C   0  0  0  0  0  0  0  0  0  0  0  0
   14.5197   33.1176    0.0000 C   0  0  0  0  0  0  0  0  0  0  0  0
   15.0493   31.7142    0.0000 C   0  0  0  0  0  0  0  0  0  0  0  0
   15.4906   30.2806    0.0000 C   0  0  0  0  0  0  0  0  0  0  0  0
   15.8419   28.8223    0.0000 C   0  0  0  0  0  0  0  0  0  0  0  0
   16.1018   27.3450    0.0000 C   0  0  0  0  0  0  0  0  0  0  0  0
   16.2694   25.8544    0.0000 C   0  0  0  0  0  0  0  0  0  0  0  0
   16.3441   24.3563    0.0000 C   0  0  0  0  0  0  0  0  0  0  0  0
   16.3254   22.8564    0.0000 C   0  0  0  0  0  0  0  0  0  0  0  0
   16.2135   21.3606    0.0000 C   0  0  0  0  0  0  0  0  0  0  0  0
   16.0089   19.8746    0.0000 C   0  0  0  0  0  0  0  0  0  0  0  0
   15.7122   18.4042    0.0000 C   0  0  0  0  0  0  0  0  0  0  0  0
   15.3248   16.9551    0.0000 C   0  0  0  0  0  0  0  0  0  0  0  0
   14.8479   15.5329    0.0000 C   0  0  0  0  0  0  0  0  0  0  0  0
   14.2836   14.1431    0.0000 C   0  0  0  0  0  0  0  0  0  0  0  0
   13.6340   12.7911    0.0000 C   0  0  0  0  0  0  0  0  0  0  0  0
   12.9016   11.4821    0.0000 C   0  0  0  0  0  0  0  0  0  0  0  0
   12.0892   10.2211    0.0000 C   0  0  0  0  0  0  0  0  0  0  0  0
   11.2000    9.0131    0.0000 C   0  0  0  0  0  0  0  0  0  0  0  0
   10.2374    7.8627    0.0000 C   0  0  0  0  0  0  0  0  0  0  0  0
    9.2051    6.7744    0.0000 C   0  0  0  0  0  0  0  0  0  0  0  0
    8.1072    5.7523    0.0000 C   0  0  0  0  0  0  0  0  0  0  0  0
    6.9479    4.8005    0.0000 C   0  0  0  0  0  0  0  0  0  0  0  0
    5.7316    3.9226    0.0000 C   0  0  0  0  0  0  0  0  0  0  0  0
    4.4631    3.1220    0.0000 C   0  0  0  0  0  0  0  0  0  0  0  0
    3.1473    2.4018    0.0000 C   0  0  0  0  0  0  0  0  0  0  0  0
    1.7893    1.7648    0.0000 C   0  0  0  0  0  0  0  0  0  0  0  0
    0.3943    1.2135    0.0000 C   0  0  0  0  0  0  0  0  0  0  0  0
    1.2760    0.0000    0.0000 C   0  0  0  0  0  0  0  0  0  0  0  0
    0.3943   -1.2135    0.0000 C   0  0  0  0  0  0  0  0  0  0  0  0
   -1.0323   -0.7500    0.0000 C   0  0  0  0  0  0  0  0  0  0  0  0
   -1.0323    0.7500    0.0000 C   0  0  0  0  0  0  0  0  0  0  0  0
  1  2  1  0
  2  3  1  0
  3  4  1  0
  4  5  2  0
  5  6  1  0
  6  7  2  0
  7  8  1  0
  8  9  1  0
  9 10  1  0
 10 11  1  0
 11 12  1  0
 12 13  1  0
 13 14  1  0
 14 15  1  0
 15 16  1  0
 16 17  1  0
 17 18  1  0
 18 19  1  0
 19 20  1  0
 20 21  1  0
 21 22  1  0
 22 23  1  0
 23 24  1  0
 24 25  1  0
 25 26  1  0
 26 27  1  0
 27 28  1  0
 28 29  1  0
 29 30  1  0
 30 31  1  0
 31 32  1  0
 32 33  1  0
 33 34  1  0
 34 35  1  0
 35 36  1  0
 36 37  1  0
 37 38  1  0
 38 39  1  0
 39 40  1  0
 40 41  1  0
 41 42  1  0
 42 43  1  0
 43 44  1  0
 44 45  1  0
 45 46  1  0
 46 47  1  0
 47 48  1  0
 48 49  1  0
 49 50  1  0
 50 51  1  0
 51 52  1  0
 52 53  1  0
 53 54  1  0
 54 55  1  0
 55 56  1  0
 56 57  1  0
 57 58  1  0
 58 59  1  0
 59 60  1  0
 60 61  1  0
 61 62  1  0
 62 63  1  0
 63 64  1  0
 64 65  1  0
 65 66  1  0
 66 67  1  0
 67 68  1  0
 68 69  1  0
 69 70  1  0
 70 71  1  0
 71 72  1  0
 72 73  1  0
 73 74  1  0
 74 75  1  0
 75 76  1  0
 76 77  1  0
 77 78  1  0
 78 79  1  0
 79 80  1  0
 80 81  1  0
 81 82  1  0
 82 83  1  0
 83 84  1  0
 84 85  1  0
 85 86  1  0
 86 87  1  0
 87 88  1  0
 88 89  1  0
 89 90  1  0
 90 91  1  0
 91 92  1  0
 92 93  1  0
 93 94  1  0
 94 95  1  0
 95 96  1  0
 96 97  1  0
 97 98  1  0
 98 99  1  0
 99100  1  0
100101  1  0
101102  1  0
102103  2  0
103104  1  0
104105  2  0
105  2  1  0
105101  1  0
M  END
>  <Title>  (807) 
idABDCgen14

$$$$

     RDKit          2D

 85 87  0  0  0  0  0  0  0  0999 V2000
   -2.4282    0.0675    0.0000 C   0  0  0  0  0  0  0  0  0  0  0  0
   -2.2450   -1.4213    0.0000 C   0  0  0  0  0  0  0  0  0  0  0  0
   -3.7251   -1.6650    0.0000 C   0  0  0  0  0  0  0  0  0  0  0  0
   -5.1804   -2.0286    0.0000 C   0  0  0  0  0  0  0  0  0  0  0  0
   -6.6012   -2.5095    0.0000 C   0  0  0  0  0  0  0  0  0  0  0  0
   -7.9780   -3.1047    0.0000 C   0  0  0  0  0  0  0  0  0  0  0  0
   -9.3018   -3.8101    0.0000 C   0  0  0  0  0  0  0  0  0  0  0  0
  -10.5637   -4.6210    0.0000 C   0  0  0  0  0  0  0  0  0  0  0  0
  -11.7553   -5.5322    0.0000 C   0  0  0  0  0  0  0  0  0  0  0  0
  -12.8686   -6.5374    0.0000 C   0  0  0  0  0  0  0  0  0  0  0  0
  -13.8963   -7.6300    0.0000 C   0  0  0  0  0  0  0  0  0  0  0  0
  -14.8316   -8.8027    0.0000 C   0  0  0  0  0  0  0  0  0  0  0  0
  -15.6681  -10.0478    0.0000 C   0  0  0  0  0  0  0  0  0  0  0  0
  -16.4004  -11.3569    0.0000 C   0  0  0  0  0  0  0  0  0  0  0  0
  -17.0235  -12.7214    0.0000 C   0  0  0  0  0  0  0  0  0  0  0  0
  -17.5333  -14.1321    0.0000 C   0  0  0  0  0  0  0  0  0  0  0  0
  -17.9265  -15.5796    0.0000 C   0  0  0  0  0  0  0  0  0  0  0  0
  -18.2003  -17.0544    0.0000 C   0  0  0  0  0  0  0  0  0  0  0  0
  -18.3531  -18.5466    0.0000 C   0  0  0  0  0  0  0  0  0  0  0  0
  -18.3837  -20.0463    0.0000 C   0  0  0  0  0  0  0  0  0  0  0  0
  -18.2919  -21.5435    0.0000 C   0  0  0  0  0  0  0  0  0  0  0  0
  -18.0785  -23.0282    0.0000 C   0  0  0  0  0  0  0  0  0  0  0  0
  -17.7447  -24.4906    0.0000 C   0  0  0  0  0  0  0  0  0  0  0  0
  -17.2928  -25.9209    0.0000 C   0  0  0  0  0  0  0  0  0  0  0  0
  -16.7259  -27.3097    0.0000 C   0  0  0  0  0  0  0  0  0  0  0  0
  -16.0476  -28.6476    0.0000 C   0  0  0  0  0  0  0  0  0  0  0  0
  -15.2625  -29.9257    0.0000 C   0  0  0  0  0  0  0  0  0  0  0  0
  -14.3759  -31.1356    0.0000 C   0  0  0  0  0  0  0  0  0  0  0  0
  -13.3936  -32.2693    0.0000 C   0  0  0  0  0  0  0  0  0  0  0  0
  -12.3222  -33.3191    0.0000 C   0  0  0  0  0  0  0  0  0  0  0  0
  -11.1688  -34.2780    0.0000 C   0  0  0  0  0  0  0  0  0  0  0  0
   -9.9410  -35.1398    0.0000 C   0  0  0  0  0  0  0  0  0  0  0  0
   -8.6471  -35.8986    0.0000 C   0  0  0  0  0  0  0  0  0  0  0  0
   -7.2957  -36.5494    0.0000 C   0  0  0  0  0  0  0  0  0  0  0  0
   -5.8957  -37.0879    0.0000 C   0  0  0  0  0  0  0  0  0  0  0  0
   -4.4564  -37.5105    0.0000 C   0  0  0  0  0  0  0  0  0  0  0  0
   -2.9875  -37.8144    0.0000 C   0  0  0  0  0  0  0  0  0  0  0  0
   -1.4988  -37.9975    0.0000 C   0  0  0  0  0  0  0  0  0  0  0  0
   -0.0000  -38.0587    0.0000 C   0  0  0  0  0  0  0  0  0  0  0  0
    1.4988  -37.9975    0.0000 C   0  0  0  0  0  0  0  0  0  0  0  0
    2.9875  -37.8144    0.0000 C   0  0  0  0  0  0  0  0  0  0  0  0
    4.4564  -37.5105    0.0000 C   0  0  0  0  0  0  0  0  0  0  0  0
    5.8957  -37.0879    0.0000 C   0  0  0  0  0  0  0  0  0  0  0  0
    7.2957  -36.5494    0.0000 C   0  0  0  0  0  0  0  0  0  0  0  0
    8.6471  -35.8986    0.0000 C   0  0  0  0  0  0  0  0  0  0  0  0
    9.9410  -35.1398    0.0000 C   0  0  0  0  0  0  0  0  0  0  0  0
   11.1688  -34.2780    0.0000 C   0  0  0  0  0  0  0  0  0  0  0  0
   12.3222  -33.3191    0.0000 C   0  0  0  0  0  0  0  0  0  0  0  0
   13.3936  -32.2693    0.0000 C   0  0  0  0  0  0  0  0  0  0  0  0
   14.3759  -31.1356    0.0000 C   0  0  0  0  0  0  0  0  0  0  0  0
   15.2625  -29.9257    0.0000 C   0  0  0  0  0  0  0  0  0  0  0  0
   16.0476  -28.6476    0.0000 C   0  0  0  0  0  0  0  0  0  0  0  0
   16.7259  -27.3097    0.0000 C   0  0  0  0  0  0  0  0  0  0  0  0
   17.2928  -25.9209    0.0000 C   0  0  0  0  0  0  0  0  0  0  0  0
   17.7447  -24.4906    0.0000 C   0  0  0  0  0  0  0  0  0  0  0  0
   18.0785  -23.0282    0.0000 C   0  0  0  0  0  0  0  0  0  0  0  0
   18.2919  -21.5435    0.0000 C   0  0  0  0  0  0  0  0  0  0  0  0
   18.3837  -20.0463    0.0000 C   0  0  0  0  0  0  0  0  0  0  0  0
   18.3531  -18.5466    0.0000 C   0  0  0  0  0  0  0  0  0  0  0  0
   18.2003  -17.0544    0.0000 C   0  0  0  0  0  0  0  0  0  0  0  0
   17.9265  -15.5796    0.0000 C   0  0  0  0  0  0  0  0  0  0  0  0
   17.5333  -14.1321    0.0000 C   0  0  0  0  0  0  0  0  0  0  0  0
   17.0235  -12.7214    0.0000 C   0  0  0  0  0  0  0  0  0  0  0  0
   16.4004  -11.3569    0.0000 C   0  0  0  0  0  0  0  0  0  0  0  0
   15.6681  -10.0478    0.0000 C   0  0  0  0  0  0  0  0  0  0  0  0
   14.8316   -8.8027    0.0000 C   0  0  0  0  0  0  0  0  0  0  0  0
   13.8963   -7.6300    0.0000 C   0  0  0  0  0  0  0  0  0  0  0  0
   12.8686   -6.5374    0.0000 C   0  0  0  0  0  0  0  0  0  0  0  0
   11.7553   -5.5322    0.0000 C   0  0  0  0  0  0  0  0  0  0  0  0
   10.5637   -4.6210    0.0000 C   0  0  0  0  0  0  0  0  0  0  0  0
    9.3018   -3.8101    0.0000 C   0  0  0  0  0  0  0  0  0  0  0  0
    7.9780   -3.1047    0.0000 C   0  0  0  0  0  0  0  0  0  0  0  0
    6.6012   -2.5095    0.0000 C   0  0  0  0  0  0  0  0  0  0  0  0
    5.1804   -2.0286    0.0000 C   0  0  0  0  0  0  0  0  0  0  0  0
    3.7251   -1.6650    0.0000 C   0  0  0  0  0  0  0  0  0  0  0  0
    3.9507   -3.1480    0.0000 C   0  0  0  0  0  0  0  0  0  0  0  0
    2.6100   -3.8208    0.0000 C   0  0  0  0  0  0  0  0  0  0  0  0
    1.5559   -2.7536    0.0000 C   0  0  0  0  0  0  0  0  0  0  0  0
    2.2450   -1.4213    0.0000 C   0  0  0  0  0  0  0  0  0  0  0  0
    0.7500   -1.2990    0.0000 C   0  0  0  0  0  0  0  0  0  0  0  0
    1.5000    0.0000    0.0000 C   0  0  0  0  0  0  0  0  0  0  0  0
    0.7500    1.2990    0.0000 C   0  0  0  0  0  0  0  0  0  0  0  0
   -0.7500    1.2990    0.0000 C   0  0  0  0  0  0  0  0  0  0  0  0
   -1.5000    0.0000    0.0000 C   0  0  0  0  0  0  0  0  0  0  0  0
   -0.7500   -1.2990    0.0000 C   0  0  0  0  0  0  0  0  0  0  0  0
  1  2  1  0
  2  3  1  0
  3  4  1  0
  4  5  1  0
  5  6  1  0
  6  7  1  0
  7  8  1  0
  8  9  1  0
  9 10  1  0
 10 11  1  0
 11 12  1  0
 12 13  1  0
 13 14  1  0
 14 15  1  0
 15 16  1  0
 16 17  1  0
 17 18  1  0
 18 19  1  0
 19 20  1  0
 20 21  1  0
 21 22  1  0
 22 23  1  0
 23 24  1  0
 24 25  1  0
 25 26  1  0
 26 27  1  0
 27 28  1  0
 28 29  1  0
 29 30  1  0
 30 31  1  0
 31 32  1  0
 32 33  1  0
 33 34  1  0
 34 35  1  0
 35 36  1  0
 36 37  1  0
 37 38  1  0
 38 39  1  0
 39 40  1  0
 40 41  1  0
 41 42  1  0
 42 43  1  0
 43 44  1  0
 44 45  1  0
 45 46  1  0
 46 47  1  0
 47 48  1  0
 48 49  1  0
 49 50  1  0
 50 51  1  0
 51 52  1  0
 52 53  1  0
 53 54  1  0
 54 55  1  0
 55 56  1  0
 56 57  1  0
 57 58  1  0
 58 59  2  0
 59 60  1  0
 60 61  2  0
 61 62  1  0
 62 63  2  0
 63 64  1  0
 64 65  2  0
 65 66  1  0
 66 67  2  0
 67 68  1  0
 68 69  2  0
 69 70  1  0
 70 71  2  0
 71 72  1  0
 72 73  2  0
 73 74  1  0
 74 75  2  0
 75 76  1  0
 76 77  2  0
 77 78  1  0
 78 79  2  0
 79 80  1  0
 80 81  2  0
 81 82  1  0
 82 83  2  0
 83 84  1  0
 84 85  2  0
 85  2  1  0
 79 75  1  0
 85 80  1  0
M  END
>  <Title>  (808) 
idABDDgen14

$$$$

     RDKit          2D

  8  7  0  0  0  0  0  0  0  0999 V2000
    0.0000    0.0000    0.0000 C   0  0  0  0  0  0  0  0  0  0  0  0
    1.2990    0.7500    0.0000 C   0  0  0  0  0  0  0  0  0  0  0  0
    2.5981   -0.0000    0.0000 C   0  0  0  0  0  0  0  0  0  0  0  0
    3.8971    0.7500    0.0000 C   0  0  0  0  0  0  0  0  0  0  0  0
    5.1962    1.5000    0.0000 C   0  0  0  0  0  0  0  0  0  0  0  0
    6.4952    2.2500    0.0000 C   0  0  0  0  0  0  0  0  0  0  0  0
    7.7942    3.0000    0.0000 C   0  0  0  0  0  0  0  0  0  0  0  0
    9.0933    3.7500    0.0000 O   0  0  0  0  0  0  0  0  0  0  0  0
  1  2  1  0
  2  3  1  0
  3  4  1  0
  4  5  3  0
  5  6  1  0
  6  7  3  0
  7  8  1  0
M  END
>  <Title>  (809) 
idABDEgen14

$$$$

     RDKit          2D

  8  8  0  0  0  0  0  0  0  0999 V2000
    4.2760   -2.5981    0.0000 C   0  0  0  0  0  0  0  0  0  0  0  0
    3.5260   -1.2990    0.0000 C   0  0  0  0  0  0  0  0  0  0  0  0
    2.7760    0.0000    0.0000 C   0  0  0  0  0  0  0  0  0  0  0  0
    1.2760    0.0000    0.0000 C   0  0  0  0  0  0  0  0  0  0  0  0
    0.3943    1.2135    0.0000 C   0  0  0  0  0  0  0  0  0  0  0  0
   -1.0323    0.7500    0.0000 C   0  0  0  0  0  0  0  0  0  0  0  0
   -1.0323   -0.7500    0.0000 C   0  0  0  0  0  0  0  0  0  0  0  0
    0.3943   -1.2135    0.0000 C   0  0  0  0  0  0  0  0  0  0  0  0
  1  2  3  0
  2  3  1  0
  3  4  1  0
  4  5  2  0
  5  6  1  0
  6  7  1  0
  7  8  2  0
  8  4  1  0
M  END
>  <Title>  (810) 
idABDFgen14

$$$$

     RDKit          2D

  8  8  0  0  0  0  0  0  0  0999 V2000
    5.0260   -1.2990    0.0000 C   0  0  0  0  0  0  0  0  0  0  0  0
    3.5260   -1.2990    0.0000 C   0  0  0  0  0  0  0  0  0  0  0  0
    2.7760    0.0000    0.0000 C   0  0  0  0  0  0  0  0  0  0  0  0
    1.2760    0.0000    0.0000 C   0  0  0  0  0  0  0  0  0  0  0  0
    0.3943    1.2135    0.0000 C   0  0  0  0  0  0  0  0  0  0  0  0
   -1.0323    0.7500    0.0000 C   0  0  0  0  0  0  0  0  0  0  0  0
   -1.0323   -0.7500    0.0000 C   0  0  0  0  0  0  0  0  0  0  0  0
    0.3943   -1.2135    0.0000 C   0  0  0  0  0  0  0  0  0  0  0  0
  1  2  1  0
  2  3  2  3
  3  4  1  0
  4  5  2  0
  5  6  1  0
  6  7  1  0
  7  8  2  0
  8  4  1  0
M  END
>  <Title>  (811) 
idABDGgen14

$$$$

     RDKit          2D

 39 43  0  0  0  0  0  0  0  0999 V2000
   -7.5000   -5.1962    0.0000 C   0  0  0  0  0  0  0  0  0  0  0  0
   -6.0000   -5.1962    0.0000 C   0  0  0  0  0  0  0  0  0  0  0  0
   -5.2500   -3.8971    0.0000 C   0  0  0  0  0  0  0  0  0  0  0  0
   -3.7500   -3.8971    0.0000 C   0  0  0  0  0  0  0  0  0  0  0  0
   -3.0000   -5.1962    0.0000 O   0  0  0  0  0  0  0  0  0  0  0  0
   -3.0000   -2.5981    0.0000 N   0  0  0  0  0  0  0  0  0  0  0  0
   -1.5000   -2.5981    0.0000 C   0  0  0  0  0  0  0  0  0  0  0  0
   -0.7500   -3.8971    0.0000 C   0  0  0  0  0  0  0  0  0  0  0  0
    0.7500   -3.8971    0.0000 S   0  0  0  0  0  4  0  0  0  0  0  0
    1.5000   -2.5981    0.0000 C   0  0  0  0  0  0  0  0  0  0  0  0
    3.0000   -2.5981    0.0000 C   0  0  0  0  0  0  0  0  0  0  0  0
    3.7500   -1.2990    0.0000 O   0  0  0  0  0  0  0  0  0  0  0  0
    3.7500   -3.8971    0.0000 N   0  0  0  0  0  0  0  0  0  0  0  0
    5.2500   -3.8971    0.0000 C   0  0  0  0  0  0  0  0  0  0  0  0
    6.1317   -2.6836    0.0000 N   0  0  0  0  0  0  0  0  0  0  0  0
    7.5583   -3.1471    0.0000 N   0  0  0  0  0  0  0  0  0  0  0  0
    7.5583   -4.6471    0.0000 N   0  0  0  0  0  0  0  0  0  0  0  0
    6.1317   -5.1106    0.0000 N   0  0  0  0  0  0  0  0  0  0  0  0
    5.6682   -6.5372    0.0000 N   0  0  0  0  0  0  0  0  0  0  0  0
    6.5498   -7.7508    0.0000 C   0  0  0  0  0  0  0  0  0  0  0  0
    5.6682   -8.9643    0.0000 C   0  0  0  0  0  0  0  0  0  0  0  0
    4.2416   -8.5008    0.0000 N   0  0  0  0  0  0  0  0  0  0  0  0
    3.0280   -9.3824    0.0000 C   0  0  0  0  0  0  0  0  0  0  0  0
    3.1848  -10.8742    0.0000 O   0  0  0  0  0  0  0  0  0  0  0  0
    1.6577   -8.7723    0.0000 N   0  0  0  0  0  0  0  0  0  0  0  0
    0.4442   -9.6540    0.0000 C   0  0  0  0  0  0  0  0  0  0  0  0
   -0.9261   -9.0439    0.0000 N   0  0  0  0  0  0  0  0  0  0  0  0
   -2.1396   -9.9256    0.0000 N   0  0  0  0  0  0  0  0  0  0  0  0
   -1.9829  -11.4174    0.0000 N   0  0  0  0  0  0  0  0  0  0  0  0
   -0.6125  -12.0275    0.0000 N   0  0  0  0  0  0  0  0  0  0  0  0
    0.6010  -11.1458    0.0000 N   0  0  0  0  0  0  0  0  0  0  0  0
    4.2416   -7.0008    0.0000 C   0  0  0  0  0  0  0  0  0  0  0  0
    3.0280   -6.1191    0.0000 O   0  0  0  0  0  0  0  0  0  0  0  0
    0.7500   -1.2990    0.0000 C   0  0  0  0  0  0  0  0  0  0  0  0
    1.5000    0.0000    0.0000 C   0  0  0  0  0  0  0  0  0  0  0  0
    0.7500    1.2990    0.0000 C   0  0  0  0  0  0  0  0  0  0  0  0
   -0.7500    1.2990    0.0000 C   0  0  0  0  0  0  0  0  0  0  0  0
   -1.5000    0.0000    0.0000 C   0  0  0  0  0  0  0  0  0  0  0  0
   -0.7500   -1.2990    0.0000 C   0  0  0  0  0  0  0  0  0  0  0  0
  1  2  1  0
  2  3  1  0
  3  4  1  0
  4  5  2  0
  4  6  1  0
  6  7  1  0
  7  8  2  0
  8  9  1  0
  9 10  2  0
 10 11  1  0
 11 12  2  0
 11 13  1  0
 13 14  1  0
 14 15  2  0
 15 16  1  0
 16 17  2  0
 17 18  1  0
 18 19  1  0
 19 20  1  0
 20 21  1  0
 21 22  1  0
 22 23  1  0
 23 24  2  0
 23 25  1  0
 25 26  1  0
 26 27  2  0
 27 28  1  0
 28 29  2  0
 29 30  1  0
 30 31  2  0
 22 32  1  0
 32 33  2  0
 10 34  1  0
 34 35  2  0
 35 36  1  0
 36 37  2  0
 37 38  1  0
 38 39  2  0
 39  7  1  0
 18 14  1  0
 32 19  1  0
 39 34  1  0
 31 26  1  0
M  END
>  <Title>  (812) 
idABDHgen14

$$$$

     RDKit          2D

 10 10  0  0  0  0  0  0  0  0999 V2000
    7.2760   -2.5981    0.0000 C   0  0  0  0  0  0  0  0  0  0  0  0
    5.7760   -2.5981    0.0000 C   0  0  0  0  0  0  0  0  0  0  0  0
    5.0260   -1.2990    0.0000 C   0  0  0  0  0  0  0  0  0  0  0  0
    3.5260   -1.2990    0.0000 N   0  0  0  0  0  0  0  0  0  0  0  0
    2.7760    0.0000    0.0000 C   0  0  0  0  0  0  0  0  0  0  0  0
    1.2760    0.0000    0.0000 C   0  0  0  0  0  0  0  0  0  0  0  0
    0.3943    1.2135    0.0000 C   0  0  0  0  0  0  0  0  0  0  0  0
   -1.0323    0.7500    0.0000 C   0  0  0  0  0  0  0  0  0  0  0  0
   -1.0323   -0.7500    0.0000 C   0  0  0  0  0  0  0  0  0  0  0  0
    0.3943   -1.2135    0.0000 C   0  0  0  0  0  0  0  0  0  0  0  0
  1  2  1  0
  2  3  2  3
  3  4  1  0
  4  5  1  0
  5  6  1  0
  6  7  2  0
  7  8  1  0
  8  9  2  0
  9 10  1  0
 10  6  1  0
M  END
>  <Title>  (813) 
idABDIgen14

$$$$

     RDKit          2D

 48 54  0  0  0  0  0  0  0  0999 V2000
   -5.0672   -4.0255    0.0000 C   0  0  0  0  0  0  0  0  0  0  0  0
   -4.6036   -5.4520    0.0000 C   0  0  0  0  0  0  0  0  0  0  0  0
   -5.4853   -6.6656    0.0000 C   0  0  0  0  0  0  0  0  0  0  0  0
   -4.6036   -7.8791    0.0000 C   0  0  0  0  0  0  0  0  0  0  0  0
   -3.1771   -7.4156    0.0000 C   0  0  0  0  0  0  0  0  0  0  0  0
   -3.1771   -5.9156    0.0000 C   0  0  0  0  0  0  0  0  0  0  0  0
   -1.9635   -5.0339    0.0000 N   0  0  0  0  0  0  0  0  0  0  0  0
   -0.7500   -5.9156    0.0000 C   0  0  0  0  0  0  0  0  0  0  0  0
    0.7500   -5.9156    0.0000 C   0  0  0  0  0  0  0  0  0  0  0  0
    1.9635   -5.0339    0.0000 C   0  0  0  0  0  0  0  0  0  0  0  0
    3.1771   -5.9156    0.0000 C   0  0  0  0  0  0  0  0  0  0  0  0
    4.5474   -5.3055    0.0000 O   0  0  0  0  0  0  0  0  0  0  0  0
    3.0203   -7.4073    0.0000 N   0  0  0  0  0  0  0  0  0  0  0  0
    4.2338   -8.2890    0.0000 C   0  0  0  0  0  0  0  0  0  0  0  0
    5.6604   -7.8255    0.0000 N   0  0  0  0  0  0  0  0  0  0  0  0
    6.5420   -9.0390    0.0000 N   0  0  0  0  0  0  0  0  0  0  0  0
    5.6604  -10.2525    0.0000 N   0  0  0  0  0  0  0  0  0  0  0  0
    4.2338   -9.7890    0.0000 N   0  0  0  0  0  0  0  0  0  0  0  0
    3.0203  -10.6707    0.0000 N   0  0  0  0  0  0  0  0  0  0  0  0
    3.0203  -12.1707    0.0000 C   0  0  0  0  0  0  0  0  0  0  0  0
    1.5937  -12.6342    0.0000 C   0  0  0  0  0  0  0  0  0  0  0  0
    0.7120  -11.4207    0.0000 N   0  0  0  0  0  0  0  0  0  0  0  0
   -0.7880  -11.4207    0.0000 C   0  0  0  0  0  0  0  0  0  0  0  0
   -1.5380  -12.7197    0.0000 O   0  0  0  0  0  0  0  0  0  0  0  0
   -1.5380  -10.1217    0.0000 N   0  0  0  0  0  0  0  0  0  0  0  0
   -3.0380  -10.1217    0.0000 C   0  0  0  0  0  0  0  0  0  0  0  0
   -3.7880   -8.8226    0.0000 N   0  0  0  0  0  0  0  0  0  0  0  0
   -5.2880   -8.8226    0.0000 N   0  0  0  0  0  0  0  0  0  0  0  0
   -6.0380  -10.1217    0.0000 N   0  0  0  0  0  0  0  0  0  0  0  0
   -5.2880  -11.4207    0.0000 N   0  0  0  0  0  0  0  0  0  0  0  0
   -3.7880  -11.4207    0.0000 N   0  0  0  0  0  0  0  0  0  0  0  0
    1.5937  -10.2072    0.0000 C   0  0  0  0  0  0  0  0  0  0  0  0
    1.1301   -8.7806    0.0000 O   0  0  0  0  0  0  0  0  0  0  0  0
    2.4271   -3.6073    0.0000 C   0  0  0  0  0  0  0  0  0  0  0  0
    3.9271   -3.6073    0.0000 O   0  0  0  0  0  0  0  0  0  0  0  0
    1.9635   -2.1807    0.0000 O   0  0  0  0  0  0  0  0  0  0  0  0
    0.7500   -1.2990    0.0000 C   0  0  0  0  0  0  0  0  0  0  0  0
    1.5000    0.0000    0.0000 C   0  0  0  0  0  0  0  0  0  0  0  0
    0.7500    1.2990    0.0000 C   0  0  0  0  0  0  0  0  0  0  0  0
   -0.7500    1.2990    0.0000 C   0  0  0  0  0  0  0  0  0  0  0  0
   -1.5000    0.0000    0.0000 C   0  0  0  0  0  0  0  0  0  0  0  0
   -0.7500   -1.2990    0.0000 C   0  0  0  0  0  0  0  0  0  0  0  0
   -1.9635   -2.1807    0.0000 C   0  0  0  0  0  0  0  0  0  0  0  0
   -2.9672   -1.0660    0.0000 C   0  0  0  0  0  0  0  0  0  0  0  0
   -4.4344   -1.3779    0.0000 C   0  0  0  0  0  0  0  0  0  0  0  0
   -4.8980   -2.8045    0.0000 C   0  0  0  0  0  0  0  0  0  0  0  0
   -3.8943   -3.9192    0.0000 C   0  0  0  0  0  0  0  0  0  0  0  0
   -2.4271   -3.6073    0.0000 C   0  0  0  0  0  0  0  0  0  0  0  0
  1  2  1  0
  2  3  1  0
  3  4  1  0
  4  5  1  0
  5  6  1  0
  6  7  1  0
  7  8  1  0
  8  9  1  0
  9 10  2  0
 10 11  1  0
 11 12  2  0
 11 13  1  0
 13 14  1  0
 14 15  2  0
 15 16  1  0
 16 17  2  0
 17 18  1  0
 18 19  1  0
 19 20  1  0
 20 21  1  0
 21 22  1  0
 22 23  1  0
 23 24  2  0
 23 25  1  0
 25 26  1  0
 26 27  2  0
 27 28  1  0
 28 29  2  0
 29 30  1  0
 30 31  2  0
 22 32  1  0
 32 33  2  0
 10 34  1  0
 34 35  2  0
 34 36  1  0
 36 37  1  0
 37 38  2  0
 38 39  1  0
 39 40  2  0
 40 41  1  0
 41 42  2  0
 42 43  1  0
 43 44  2  0
 44 45  1  0
 45 46  2  0
 46 47  1  0
 47 48  2  0
  6  2  1  0
 48  7  1  0
 18 14  1  0
 32 19  1  0
 42 37  1  0
 48 43  1  0
 31 26  1  0
M  END
>  <Title>  (814) 
idABDJgen14

$$$$

     RDKit          2D

 36 40  0  0  0  0  0  0  0  0999 V2000
   -3.1965   -1.7857    0.0000 C   0  0  0  0  0  0  0  0  0  0  0  0
   -1.8107   -2.3597    0.0000 C   0  0  0  0  0  0  0  0  0  0  0  0
   -1.8107   -3.8597    0.0000 C   0  0  0  0  0  0  0  0  0  0  0  0
   -0.7500   -4.9204    0.0000 C   0  0  0  0  0  0  0  0  0  0  0  0
    0.7500   -4.9204    0.0000 C   0  0  0  0  0  0  0  0  0  0  0  0
    1.8107   -3.8597    0.0000 C   0  0  0  0  0  0  0  0  0  0  0  0
    1.8107   -2.3597    0.0000 C   0  0  0  0  0  0  0  0  0  0  0  0
    3.1965   -1.7857    0.0000 C   0  0  0  0  0  0  0  0  0  0  0  0
    3.3923   -0.2985    0.0000 O   0  0  0  0  0  0  0  0  0  0  0  0
    4.3865   -2.6988    0.0000 N   0  0  0  0  0  0  0  0  0  0  0  0
    5.7723   -2.1248    0.0000 C   0  0  0  0  0  0  0  0  0  0  0  0
    6.1225   -0.6662    0.0000 N   0  0  0  0  0  0  0  0  0  0  0  0
    7.6179   -0.5485    0.0000 N   0  0  0  0  0  0  0  0  0  0  0  0
    8.1919   -1.9344    0.0000 N   0  0  0  0  0  0  0  0  0  0  0  0
    7.0513   -2.9085    0.0000 N   0  0  0  0  0  0  0  0  0  0  0  0
    7.1690   -4.4039    0.0000 N   0  0  0  0  0  0  0  0  0  0  0  0
    8.4479   -5.1877    0.0000 C   0  0  0  0  0  0  0  0  0  0  0  0
    8.0978   -6.6462    0.0000 C   0  0  0  0  0  0  0  0  0  0  0  0
    6.6024   -6.7639    0.0000 C   0  0  0  0  0  0  0  0  0  0  0  0
    5.8186   -8.0429    0.0000 C   0  0  0  0  0  0  0  0  0  0  0  0
    6.5344   -9.3611    0.0000 O   0  0  0  0  0  0  0  0  0  0  0  0
    4.3192   -8.0036    0.0000 N   0  0  0  0  0  0  0  0  0  0  0  0
    3.5354   -9.2826    0.0000 C   0  0  0  0  0  0  0  0  0  0  0  0
    2.0359   -9.2433    0.0000 N   0  0  0  0  0  0  0  0  0  0  0  0
    1.2522  -10.5223    0.0000 N   0  0  0  0  0  0  0  0  0  0  0  0
    1.9679  -11.8405    0.0000 N   0  0  0  0  0  0  0  0  0  0  0  0
    3.4674  -11.8797    0.0000 N   0  0  0  0  0  0  0  0  0  0  0  0
    4.2512  -10.6008    0.0000 N   0  0  0  0  0  0  0  0  0  0  0  0
    6.0284   -5.3781    0.0000 C   0  0  0  0  0  0  0  0  0  0  0  0
    4.5698   -5.0279    0.0000 O   0  0  0  0  0  0  0  0  0  0  0  0
    0.7500   -1.2990    0.0000 C   0  0  0  0  0  0  0  0  0  0  0  0
    1.5000    0.0000    0.0000 C   0  0  0  0  0  0  0  0  0  0  0  0
    0.7500    1.2990    0.0000 C   0  0  0  0  0  0  0  0  0  0  0  0
   -0.7500    1.2990    0.0000 C   0  0  0  0  0  0  0  0  0  0  0  0
   -1.5000    0.0000    0.0000 C   0  0  0  0  0  0  0  0  0  0  0  0
   -0.7500   -1.2990    0.0000 C   0  0  0  0  0  0  0  0  0  0  0  0
  1  2  1  0
  2  3  1  0
  3  4  2  0
  4  5  1  0
  5  6  1  0
  6  7  1  0
  7  8  1  0
  8  9  2  0
  8 10  1  0
 10 11  1  0
 11 12  2  0
 12 13  1  0
 13 14  2  0
 14 15  1  0
 15 16  1  0
 16 17  1  0
 17 18  1  0
 18 19  1  0
 19 20  1  0
 20 21  2  0
 20 22  1  0
 22 23  1  0
 23 24  2  0
 24 25  1  0
 25 26  2  0
 26 27  1  0
 27 28  2  0
 19 29  1  0
 29 30  2  0
  7 31  1  0
 31 32  2  0
 32 33  1  0
 33 34  2  0
 34 35  1  0
 35 36  2  0
 36  2  1  0
 15 11  1  0
 29 16  1  0
 36 31  1  0
 28 23  1  0
M  END
>  <Title>  (815) 
idABDKgen14

$$$$

     RDKit          2D

  8  7  0  0  0  0  0  0  0  0999 V2000
    0.0000    0.0000    0.0000 C   0  0  0  0  0  0  0  0  0  0  0  0
    1.2990    0.7500    0.0000 C   0  0  0  0  0  0  0  0  0  0  0  0
    2.5981   -0.0000    0.0000 C   0  0  0  0  0  0  0  0  0  0  0  0
    3.8971    0.7500    0.0000 C   0  0  0  0  0  0  0  0  0  0  0  0
    5.1962   -0.0000    0.0000 C   0  0  0  0  0  0  0  0  0  0  0  0
    6.4952    0.7500    0.0000 C   0  0  0  0  0  0  0  0  0  0  0  0
    7.7942   -0.0000    0.0000 C   0  0  0  0  0  0  0  0  0  0  0  0
    6.4952    2.2500    0.0000 C   0  0  0  0  0  0  0  0  0  0  0  0
  1  2  1  0
  2  3  1  0
  3  4  2  3
  4  5  1  0
  5  6  1  0
  6  7  1  0
  6  8  1  0
M  END
>  <Title>  (816) 
idABDLgen14

$$$$

     RDKit          2D

 75 76  0  0  0  0  0  0  0  0999 V2000
    3.7940   -4.1506    0.0000 C   0  0  0  0  0  0  0  0  0  0  0  0
    4.5734   -4.3179    0.0000 C   0  0  0  0  0  0  0  0  0  0  0  0
    4.3477   -5.8008    0.0000 C   0  0  0  0  0  0  0  0  0  0  0  0
    4.3024   -7.3001    0.0000 C   0  0  0  0  0  0  0  0  0  0  0  0
    4.4381   -8.7940    0.0000 C   0  0  0  0  0  0  0  0  0  0  0  0
    4.7529  -10.2606    0.0000 C   0  0  0  0  0  0  0  0  0  0  0  0
    5.2422  -11.6785    0.0000 C   0  0  0  0  0  0  0  0  0  0  0  0
    5.8989  -13.0271    0.0000 C   0  0  0  0  0  0  0  0  0  0  0  0
    6.7133  -14.2868    0.0000 C   0  0  0  0  0  0  0  0  0  0  0  0
    7.6736  -15.4391    0.0000 C   0  0  0  0  0  0  0  0  0  0  0  0
    8.7658  -16.4672    0.0000 C   0  0  0  0  0  0  0  0  0  0  0  0
    9.9740  -17.3562    0.0000 C   0  0  0  0  0  0  0  0  0  0  0  0
   11.2805  -18.0931    0.0000 C   0  0  0  0  0  0  0  0  0  0  0  0
   12.6664  -18.6671    0.0000 C   0  0  0  0  0  0  0  0  0  0  0  0
   14.1113  -19.0699    0.0000 C   0  0  0  0  0  0  0  0  0  0  0  0
   15.5942  -19.2956    0.0000 C   0  0  0  0  0  0  0  0  0  0  0  0
   17.0935  -19.3409    0.0000 C   0  0  0  0  0  0  0  0  0  0  0  0
   18.5873  -19.2052    0.0000 C   0  0  0  0  0  0  0  0  0  0  0  0
   20.0539  -18.8904    0.0000 C   0  0  0  0  0  0  0  0  0  0  0  0
   21.4719  -18.4011    0.0000 C   0  0  0  0  0  0  0  0  0  0  0  0
   22.8205  -17.7444    0.0000 C   0  0  0  0  0  0  0  0  0  0  0  0
   24.0802  -16.9300    0.0000 C   0  0  0  0  0  0  0  0  0  0  0  0
   25.2325  -15.9697    0.0000 C   0  0  0  0  0  0  0  0  0  0  0  0
   26.2606  -14.8775    0.0000 C   0  0  0  0  0  0  0  0  0  0  0  0
   27.1496  -13.6693    0.0000 C   0  0  0  0  0  0  0  0  0  0  0  0
   27.8865  -12.3628    0.0000 C   0  0  0  0  0  0  0  0  0  0  0  0
   28.4605  -10.9769    0.0000 C   0  0  0  0  0  0  0  0  0  0  0  0
   28.8633   -9.5320    0.0000 C   0  0  0  0  0  0  0  0  0  0  0  0
   29.0890   -8.0491    0.0000 C   0  0  0  0  0  0  0  0  0  0  0  0
   29.1343   -6.5498    0.0000 C   0  0  0  0  0  0  0  0  0  0  0  0
   28.9986   -5.0559    0.0000 C   0  0  0  0  0  0  0  0  0  0  0  0
   28.6837   -3.5894    0.0000 C   0  0  0  0  0  0  0  0  0  0  0  0
   28.1944   -2.1714    0.0000 C   0  0  0  0  0  0  0  0  0  0  0  0
   27.5378   -0.8228    0.0000 C   0  0  0  0  0  0  0  0  0  0  0  0
   26.7234    0.4369    0.0000 C   0  0  0  0  0  0  0  0  0  0  0  0
   25.7630    1.5892    0.0000 C   0  0  0  0  0  0  0  0  0  0  0  0
   24.6708    2.6173    0.0000 C   0  0  0  0  0  0  0  0  0  0  0  0
   23.4627    3.5063    0.0000 C   0  0  0  0  0  0  0  0  0  0  0  0
   22.1561    4.2432    0.0000 C   0  0  0  0  0  0  0  0  0  0  0  0
   20.7703    4.8172    0.0000 C   0  0  0  0  0  0  0  0  0  0  0  0
   19.3254    5.2200    0.0000 C   0  0  0  0  0  0  0  0  0  0  0  0
   17.8425    5.4457    0.0000 C   0  0  0  0  0  0  0  0  0  0  0  0
   16.3432    5.4910    0.0000 C   0  0  0  0  0  0  0  0  0  0  0  0
   14.8493    5.3553    0.0000 C   0  0  0  0  0  0  0  0  0  0  0  0
   13.3827    5.0404    0.0000 C   0  0  0  0  0  0  0  0  0  0  0  0
   11.9648    4.5511    0.0000 C   0  0  0  0  0  0  0  0  0  0  0  0
   10.6161    3.8945    0.0000 C   0  0  0  0  0  0  0  0  0  0  0  0
    9.3565    3.0801    0.0000 C   0  0  0  0  0  0  0  0  0  0  0  0
    8.2042    2.1197    0.0000 C   0  0  0  0  0  0  0  0  0  0  0  0
    7.1761    1.0275    0.0000 C   0  0  0  0  0  0  0  0  0  0  0  0
    6.2871   -0.1806    0.0000 C   0  0  0  0  0  0  0  0  0  0  0  0
    5.5502   -1.4872    0.0000 C   0  0  0  0  0  0  0  0  0  0  0  0
    5.0460   -0.0000    0.0000 C   0  0  0  0  0  0  0  0  0  0  0  0
    4.8740    1.3060    0.0000 C   0  0  0  0  0  0  0  0  0  0  0  0
    4.3699    2.5230    0.0000 C   0  0  0  0  0  0  0  0  0  0  0  0
    3.5680    3.5680    0.0000 C   0  0  0  0  0  0  0  0  0  0  0  0
    2.5230    4.3699    0.0000 C   0  0  0  0  0  0  0  0  0  0  0  0
    1.3060    4.8740    0.0000 C   0  0  0  0  0  0  0  0  0  0  0  0
    0.0000    5.0460    0.0000 C   0  0  0  0  0  0  0  0  0  0  0  0
   -1.3060    4.8740    0.0000 C   0  0  0  0  0  0  0  0  0  0  0  0
   -2.5230    4.3699    0.0000 C   0  0  0  0  0  0  0  0  0  0  0  0
   -3.5680    3.5680    0.0000 C   0  0  0  0  0  0  0  0  0  0  0  0
   -4.3699    2.5230    0.0000 C   0  0  0  0  0  0  0  0  0  0  0  0
   -4.8740    1.3060    0.0000 C   0  0  0  0  0  0  0  0  0  0  0  0
   -5.0460    0.0000    0.0000 C   0  0  0  0  0  0  0  0  0  0  0  0
   -4.8740   -1.3060    0.0000 C   0  0  0  0  0  0  0  0  0  0  0  0
   -4.3699   -2.5230    0.0000 C   0  0  0  0  0  0  0  0  0  0  0  0
   -3.5680   -3.5680    0.0000 C   0  0  0  0  0  0  0  0  0  0  0  0
   -2.5230   -4.3699    0.0000 C   0  0  0  0  0  0  0  0  0  0  0  0
   -1.3060   -4.8740    0.0000 C   0  0  0  0  0  0  0  0  0  0  0  0
   -0.0000   -5.0460    0.0000 C   0  0  0  0  0  0  0  0  0  0  0  0
    1.3060   -4.8740    0.0000 C   0  0  0  0  0  0  0  0  0  0  0  0
    2.5230   -4.3699    0.0000 C   0  0  0  0  0  0  0  0  0  0  0  0
    3.5680   -3.5680    0.0000 C   0  0  0  0  0  0  0  0  0  0  0  0
    4.9762   -2.8730    0.0000 C   0  0  0  0  0  0  0  0  0  0  0  0
  1  2  1  0
  2  3  1  0
  3  4  1  0
  4  5  1  0
  5  6  1  0
  6  7  1  0
  7  8  1  0
  8  9  1  0
  9 10  1  0
 10 11  1  0
 11 12  1  0
 12 13  1  0
 13 14  1  0
 14 15  1  0
 15 16  1  0
 16 17  1  0
 17 18  1  0
 18 19  1  0
 19 20  1  0
 20 21  1  0
 21 22  1  0
 22 23  1  0
 23 24  1  0
 24 25  1  0
 25 26  1  0
 26 27  1  0
 27 28  1  0
 28 29  1  0
 29 30  1  0
 30 31  1  0
 31 32  1  0
 32 33  1  0
 33 34  1  0
 34 35  1  0
 35 36  1  0
 36 37  1  0
 37 38  1  0
 38 39  1  0
 39 40  1  0
 40 41  1  0
 41 42  1  0
 42 43  1  0
 43 44  1  0
 44 45  1  0
 45 46  1  0
 46 47  1  0
 47 48  1  0
 48 49  1  0
 49 50  1  0
 50 51  1  0
 51 52  1  0
 52 53  1  0
 53 54  1  0
 54 55  1  0
 55 56  1  0
 56 57  2  0
 57 58  1  0
 58 59  2  0
 59 60  1  0
 60 61  2  0
 61 62  1  0
 62 63  2  0
 63 64  1  0
 64 65  2  0
 65 66  1  0
 66 67  2  0
 67 68  1  0
 68 69  2  0
 69 70  1  0
 70 71  2  0
 71 72  1  0
 72 73  2  0
 73 74  1  0
 74 75  2  0
 75  2  1  0
 75 52  1  0
M  END
>  <Title>  (817) 
idABDMgen14

$$$$

     RDKit          2D

  6  5  0  0  0  0  0  0  0  0999 V2000
    0.0000    0.0000    0.0000 C   0  0  0  0  0  0  0  0  0  0  0  0
    1.2990    0.7500    0.0000 C   0  0  0  0  0  0  0  0  0  0  0  0
    2.5981   -0.0000    0.0000 C   0  0  0  0  0  0  0  0  0  0  0  0
    3.8971    0.7500    0.0000 C   0  0  0  0  0  0  0  0  0  0  0  0
    5.1962   -0.0000    0.0000 C   0  0  0  0  0  0  0  0  0  0  0  0
    6.4952    0.7500    0.0000 C   0  0  0  0  0  0  0  0  0  0  0  0
  1  2  2  0
  2  3  1  0
  3  4  1  0
  4  5  1  0
  5  6  1  0
M  END
>  <Title>  (818) 
idABDNgen14

$$$$

     RDKit          2D

 16 15  0  0  0  0  0  0  0  0999 V2000
    0.0000    0.0000    0.0000 C   0  0  0  0  0  0  0  0  0  0  0  0
    1.2990    0.7500    0.0000 C   0  0  0  0  0  0  0  0  0  0  0  0
    2.5981   -0.0000    0.0000 C   0  0  0  0  0  0  0  0  0  0  0  0
    3.8971    0.7500    0.0000 C   0  0  0  0  0  0  0  0  0  0  0  0
    5.1962   -0.0000    0.0000 C   0  0  0  0  0  0  0  0  0  0  0  0
    6.4952    0.7500    0.0000 C   0  0  0  0  0  0  0  0  0  0  0  0
    7.7942   -0.0000    0.0000 C   0  0  0  0  0  0  0  0  0  0  0  0
    9.0933    0.7500    0.0000 C   0  0  0  0  0  0  0  0  0  0  0  0
   10.3923   -0.0000    0.0000 C   0  0  0  0  0  0  0  0  0  0  0  0
   11.6913    0.7500    0.0000 C   0  0  0  0  0  0  0  0  0  0  0  0
   10.3923   -1.5000    0.0000 N   0  0  0  0  0  0  0  0  0  0  0  0
   11.6913   -2.2500    0.0000 C   0  0  0  0  0  0  0  0  0  0  0  0
   12.9904   -1.5000    0.0000 O   0  0  0  0  0  0  0  0  0  0  0  0
   11.6913   -3.7500    0.0000 C   0  0  0  0  0  0  0  0  0  0  0  0
   12.9904   -4.5000    0.0000 C   0  0  0  0  0  0  0  0  0  0  0  0
   12.9904   -6.0000    0.0000 C   0  0  0  0  0  0  0  0  0  0  0  0
  1  2  1  0
  2  3  2  3
  3  4  1  0
  4  5  1  0
  5  6  1  0
  6  7  1  0
  7  8  1  0
  8  9  1  0
  9 10  1  0
  9 11  1  0
 11 12  1  0
 12 13  2  0
 12 14  1  0
 14 15  1  0
 15 16  1  0
M  END
>  <Title>  (819) 
idABDOgen14

$$$$

     RDKit          2D

  8  8  0  0  0  0  0  0  0  0999 V2000
    4.2760   -2.5981    0.0000 N   0  0  0  0  0  0  0  0  0  0  0  0
    3.5260   -1.2990    0.0000 C   0  0  0  0  0  0  0  0  0  0  0  0
    2.7760    0.0000    0.0000 C   0  0  0  0  0  0  0  0  0  0  0  0
    1.2760    0.0000    0.0000 C   0  0  0  0  0  0  0  0  0  0  0  0
    0.3943    1.2135    0.0000 C   0  0  0  0  0  0  0  0  0  0  0  0
   -1.0323    0.7500    0.0000 C   0  0  0  0  0  0  0  0  0  0  0  0
   -1.0323   -0.7500    0.0000 C   0  0  0  0  0  0  0  0  0  0  0  0
    0.3943   -1.2135    0.0000 N   0  0  0  0  0  0  0  0  0  0  0  0
  1  2  3  0
  2  3  1  0
  3  4  1  0
  4  5  2  0
  5  6  1  0
  6  7  1  0
  7  8  2  0
  8  4  1  0
M  END
>  <Title>  (820) 
idABDPgen14

$$$$

     RDKit          2D

  9  9  0  0  0  0  0  0  0  0999 V2000
    4.5000   -2.5981    0.0000 C   0  0  0  0  0  0  0  0  0  0  0  0
    3.7500   -1.2990    0.0000 C   0  0  0  0  0  0  0  0  0  0  0  0
    3.0000    0.0000    0.0000 C   0  0  0  0  0  0  0  0  0  0  0  0
    1.5000    0.0000    0.0000 C   0  0  0  0  0  0  0  0  0  0  0  0
    0.7500   -1.2990    0.0000 C   0  0  0  0  0  0  0  0  0  0  0  0
   -0.7500   -1.2990    0.0000 C   0  0  0  0  0  0  0  0  0  0  0  0
   -1.5000    0.0000    0.0000 C   0  0  0  0  0  0  0  0  0  0  0  0
   -0.7500    1.2990    0.0000 N   0  0  0  0  0  0  0  0  0  0  0  0
    0.7500    1.2990    0.0000 C   0  0  0  0  0  0  0  0  0  0  0  0
  1  2  3  0
  2  3  1  0
  3  4  1  0
  4  5  2  0
  5  6  1  0
  6  7  2  0
  7  8  1  0
  8  9  2  0
  9  4  1  0
M  END
>  <Title>  (821) 
idABDQgen14

$$$$

     RDKit          2D

 21 23  0  0  0  0  0  0  0  0999 V2000
    7.6104    2.8717    0.0000 C   0  0  0  0  0  0  0  0  0  0  0  0
    7.4536    1.3799    0.0000 C   0  0  0  0  0  0  0  0  0  0  0  0
    6.1545    0.6299    0.0000 C   0  0  0  0  0  0  0  0  0  0  0  0
    6.4664   -0.8373    0.0000 C   0  0  0  0  0  0  0  0  0  0  0  0
    5.4627   -1.9520    0.0000 C   0  0  0  0  0  0  0  0  0  0  0  0
    5.9262   -3.3786    0.0000 O   0  0  0  0  0  0  0  0  0  0  0  0
    3.9955   -1.6402    0.0000 N   0  0  0  0  0  0  0  0  0  0  0  0
    2.9918   -2.7549    0.0000 C   0  0  0  0  0  0  0  0  0  0  0  0
    3.3037   -4.2221    0.0000 N   0  0  0  0  0  0  0  0  0  0  0  0
    2.0046   -4.9721    0.0000 N   0  0  0  0  0  0  0  0  0  0  0  0
    0.8899   -3.9684    0.0000 N   0  0  0  0  0  0  0  0  0  0  0  0
    1.5000   -2.5981    0.0000 N   0  0  0  0  0  0  0  0  0  0  0  0
    0.7500   -1.2990    0.0000 C   0  0  0  0  0  0  0  0  0  0  0  0
    1.5000    0.0000    0.0000 C   0  0  0  0  0  0  0  0  0  0  0  0
    0.7500    1.2990    0.0000 C   0  0  0  0  0  0  0  0  0  0  0  0
   -0.7500    1.2990    0.0000 C   0  0  0  0  0  0  0  0  0  0  0  0
   -1.5000    2.5981    0.0000 O   0  0  0  0  0  0  0  0  0  0  0  0
   -1.5000    0.0000    0.0000 C   0  0  0  0  0  0  0  0  0  0  0  0
   -0.7500   -1.2990    0.0000 C   0  0  0  0  0  0  0  0  0  0  0  0
    7.9582   -0.9941    0.0000 C   0  0  0  0  0  0  0  0  0  0  0  0
    8.5683    0.3762    0.0000 C   0  0  0  0  0  0  0  0  0  0  0  0
  1  2  1  0
  2  3  2  0
  3  4  1  0
  4  5  1  0
  5  6  2  0
  5  7  1  0
  7  8  1  0
  8  9  2  0
  9 10  1  0
 10 11  2  0
 11 12  1  0
 12 13  1  0
 13 14  2  0
 14 15  1  0
 15 16  2  0
 16 17  1  0
 16 18  1  0
 18 19  2  0
  4 20  1  0
 20 21  2  0
 21  2  1  0
 12  8  1  0
 19 13  1  0
M  END
>  <Title>  (822) 
idABDRgen14

$$$$

     RDKit          2D

 16 16  0  0  0  0  0  0  0  0999 V2000
    5.2500   -6.4952    0.0000 C   0  0  0  0  0  0  0  0  0  0  0  0
    6.0000   -5.1962    0.0000 C   0  0  0  0  0  0  0  0  0  0  0  0
    5.2500   -3.8971    0.0000 C   0  0  0  0  0  0  0  0  0  0  0  0
    6.0000   -2.5981    0.0000 C   0  0  0  0  0  0  0  0  0  0  0  0
    7.5000   -2.5981    0.0000 C   0  0  0  0  0  0  0  0  0  0  0  0
    5.2500   -1.2990    0.0000 N   0  0  0  0  0  0  0  0  0  0  0  0
    3.7500   -1.2990    0.0000 C   0  0  0  0  0  0  0  0  0  0  0  0
    3.0000   -2.5981    0.0000 O   0  0  0  0  0  0  0  0  0  0  0  0
    3.0000    0.0000    0.0000 C   0  0  0  0  0  0  0  0  0  0  0  0
    1.5000    0.0000    0.0000 C   0  0  0  0  0  0  0  0  0  0  0  0
    0.7500   -1.2990    0.0000 C   0  0  0  0  0  0  0  0  0  0  0  0
   -0.7500   -1.2990    0.0000 C   0  0  0  0  0  0  0  0  0  0  0  0
   -1.5000    0.0000    0.0000 C   0  0  0  0  0  0  0  0  0  0  0  0
   -3.0000    0.0000    0.0000 O   0  0  0  0  0  0  0  0  0  0  0  0
   -0.7500    1.2990    0.0000 C   0  0  0  0  0  0  0  0  0  0  0  0
    0.7500    1.2990    0.0000 C   0  0  0  0  0  0  0  0  0  0  0  0
  1  2  1  0
  2  3  1  0
  3  4  1  0
  4  5  1  0
  4  6  1  0
  6  7  1  0
  7  8  2  0
  7  9  1  0
  9 10  1  0
 10 11  2  0
 11 12  1  0
 12 13  2  0
 13 14  1  0
 13 15  1  0
 15 16  2  0
 16 10  1  0
M  END
>  <Title>  (823) 
idABDSgen14

$$$$

     RDKit          2D

 34 38  0  0  0  0  0  0  0  0999 V2000
   -2.6401   -3.1891    0.0000 C   0  0  0  0  0  0  0  0  0  0  0  0
   -1.2135   -2.7256    0.0000 C   0  0  0  0  0  0  0  0  0  0  0  0
   -0.0000   -3.6073    0.0000 C   0  0  0  0  0  0  0  0  0  0  0  0
    1.2135   -2.7256    0.0000 C   0  0  0  0  0  0  0  0  0  0  0  0
    2.6401   -3.1891    0.0000 C   0  0  0  0  0  0  0  0  0  0  0  0
    3.7548   -2.1855    0.0000 O   0  0  0  0  0  0  0  0  0  0  0  0
    2.9520   -4.6564    0.0000 N   0  0  0  0  0  0  0  0  0  0  0  0
    4.3786   -5.1199    0.0000 C   0  0  0  0  0  0  0  0  0  0  0  0
    5.5921   -4.2382    0.0000 N   0  0  0  0  0  0  0  0  0  0  0  0
    6.8056   -5.1199    0.0000 N   0  0  0  0  0  0  0  0  0  0  0  0
    6.3421   -6.5465    0.0000 N   0  0  0  0  0  0  0  0  0  0  0  0
    4.8421   -6.5465    0.0000 N   0  0  0  0  0  0  0  0  0  0  0  0
    3.9604   -7.7600    0.0000 C   0  0  0  0  0  0  0  0  0  0  0  0
    4.4239   -9.1866    0.0000 C   0  0  0  0  0  0  0  0  0  0  0  0
    3.2104  -10.0683    0.0000 C   0  0  0  0  0  0  0  0  0  0  0  0
    1.9969   -9.1866    0.0000 C   0  0  0  0  0  0  0  0  0  0  0  0
    0.5703   -9.6501    0.0000 O   0  0  0  0  0  0  0  0  0  0  0  0
   -0.5444   -8.6464    0.0000 C   0  0  0  0  0  0  0  0  0  0  0  0
   -0.2325   -7.1792    0.0000 O   0  0  0  0  0  0  0  0  0  0  0  0
   -1.9710   -9.1099    0.0000 N   0  0  0  0  0  0  0  0  0  0  0  0
   -3.0857   -8.1062    0.0000 C   0  0  0  0  0  0  0  0  0  0  0  0
   -2.7739   -6.6390    0.0000 N   0  0  0  0  0  0  0  0  0  0  0  0
   -3.8886   -5.6353    0.0000 N   0  0  0  0  0  0  0  0  0  0  0  0
   -5.3152   -6.0989    0.0000 N   0  0  0  0  0  0  0  0  0  0  0  0
   -5.6270   -7.5661    0.0000 N   0  0  0  0  0  0  0  0  0  0  0  0
   -4.5123   -8.5698    0.0000 N   0  0  0  0  0  0  0  0  0  0  0  0
    2.4604   -7.7600    0.0000 C   0  0  0  0  0  0  0  0  0  0  0  0
    1.5787   -6.5465    0.0000 O   0  0  0  0  0  0  0  0  0  0  0  0
    0.7500   -1.2990    0.0000 C   0  0  0  0  0  0  0  0  0  0  0  0
    1.5000    0.0000    0.0000 C   0  0  0  0  0  0  0  0  0  0  0  0
    0.7500    1.2990    0.0000 C   0  0  0  0  0  0  0  0  0  0  0  0
   -0.7500    1.2990    0.0000 C   0  0  0  0  0  0  0  0  0  0  0  0
   -1.5000    0.0000    0.0000 C   0  0  0  0  0  0  0  0  0  0  0  0
   -0.7500   -1.2990    0.0000 C   0  0  0  0  0  0  0  0  0  0  0  0
  1  2  1  0
  2  3  1  0
  3  4  2  0
  4  5  1  0
  5  6  2  0
  5  7  1  0
  7  8  1  0
  8  9  2  0
  9 10  1  0
 10 11  2  0
 11 12  1  0
 12 13  1  0
 13 14  2  0
 14 15  1  0
 15 16  2  0
 16 17  1  0
 17 18  1  0
 18 19  2  0
 18 20  1  0
 20 21  1  0
 21 22  2  0
 22 23  1  0
 23 24  2  0
 24 25  1  0
 25 26  2  0
 16 27  1  0
 27 28  2  0
  4 29  1  0
 29 30  2  0
 30 31  1  0
 31 32  2  0
 32 33  1  0
 33 34  2  0
 34  2  1  0
 12  8  1  0
 27 13  1  0
 34 29  1  0
 26 21  1  0
M  END
>  <Title>  (824) 
idABDTgen14

$$$$

     RDKit          2D

 10 10  0  0  0  0  0  0  0  0999 V2000
    5.2500   -1.2990    0.0000 C   0  0  0  0  0  0  0  0  0  0  0  0
    3.7500   -1.2990    0.0000 C   0  0  0  0  0  0  0  0  0  0  0  0
    3.0000   -2.5981    0.0000 O   0  0  0  0  0  0  0  0  0  0  0  0
    3.0000    0.0000    0.0000 N   0  0  0  0  0  0  0  0  0  0  0  0
    1.5000    0.0000    0.0000 C   0  0  0  0  0  0  0  0  0  0  0  0
    0.7500   -1.2990    0.0000 C   0  0  0  0  0  0  0  0  0  0  0  0
   -0.7500   -1.2990    0.0000 C   0  0  0  0  0  0  0  0  0  0  0  0
   -1.5000    0.0000    0.0000 C   0  0  0  0  0  0  0  0  0  0  0  0
   -0.7500    1.2990    0.0000 C   0  0  0  0  0  0  0  0  0  0  0  0
    0.7500    1.2990    0.0000 N   0  0  0  0  0  0  0  0  0  0  0  0
  1  2  1  0
  2  3  2  0
  2  4  1  0
  4  5  1  0
  5  6  2  0
  6  7  1  0
  7  8  2  0
  8  9  1  0
  9 10  2  0
 10  5  1  0
M  END
>  <Title>  (825) 
idABDUgen14

$$$$

     RDKit          2D

 16 16  0  0  0  0  0  0  0  0999 V2000
   10.5000    0.0000    0.0000 C   0  0  0  0  0  0  0  0  0  0  0  0
    9.7500   -1.2990    0.0000 C   0  0  0  0  0  0  0  0  0  0  0  0
    8.2500   -1.2990    0.0000 C   0  0  0  0  0  0  0  0  0  0  0  0
    7.5000   -2.5981    0.0000 C   0  0  0  0  0  0  0  0  0  0  0  0
    8.2500   -3.8971    0.0000 C   0  0  0  0  0  0  0  0  0  0  0  0
    6.0000   -2.5981    0.0000 C   0  0  0  0  0  0  0  0  0  0  0  0
    5.2500   -1.2990    0.0000 C   0  0  0  0  0  0  0  0  0  0  0  0
    6.0000    0.0000    0.0000 O   0  0  0  0  0  0  0  0  0  0  0  0
    3.7500   -1.2990    0.0000 N   0  0  0  0  0  0  0  0  0  0  0  0
    3.0000    0.0000    0.0000 C   0  0  0  0  0  0  0  0  0  0  0  0
    1.5000    0.0000    0.0000 C   0  0  0  0  0  0  0  0  0  0  0  0
    0.7500   -1.2990    0.0000 C   0  0  0  0  0  0  0  0  0  0  0  0
   -0.7500   -1.2990    0.0000 C   0  0  0  0  0  0  0  0  0  0  0  0
   -1.5000    0.0000    0.0000 C   0  0  0  0  0  0  0  0  0  0  0  0
   -0.7500    1.2990    0.0000 N   0  0  0  0  0  0  0  0  0  0  0  0
    0.7500    1.2990    0.0000 C   0  0  0  0  0  0  0  0  0  0  0  0
  1  2  1  0
  2  3  1  0
  3  4  1  0
  4  5  1  0
  4  6  1  0
  6  7  1  0
  7  8  2  0
  7  9  1  0
  9 10  1  0
 10 11  1  0
 11 12  2  0
 12 13  1  0
 13 14  2  0
 14 15  1  0
 15 16  2  0
 16 11  1  0
M  END
>  <Title>  (826) 
idABDVgen14

$$$$

     RDKit          2D

 35 39  0  0  0  0  0  0  0  0999 V2000
   -3.1476   -2.1380    0.0000 C   0  0  0  0  0  0  0  0  0  0  0  0
   -1.6852   -2.4718    0.0000 N   0  0  0  0  0  0  0  0  0  0  0  0
   -1.3515   -3.9342    0.0000 C   0  0  0  0  0  0  0  0  0  0  0  0
   -0.0000   -4.5850    0.0000 C   0  0  0  0  0  0  0  0  0  0  0  0
    1.3515   -3.9342    0.0000 C   0  0  0  0  0  0  0  0  0  0  0  0
    1.6852   -2.4718    0.0000 C   0  0  0  0  0  0  0  0  0  0  0  0
    3.1476   -2.1380    0.0000 C   0  0  0  0  0  0  0  0  0  0  0  0
    3.5898   -0.7046    0.0000 O   0  0  0  0  0  0  0  0  0  0  0  0
    4.1679   -3.2376    0.0000 N   0  0  0  0  0  0  0  0  0  0  0  0
    5.6303   -2.9038    0.0000 C   0  0  0  0  0  0  0  0  0  0  0  0
    6.2198   -1.5245    0.0000 N   0  0  0  0  0  0  0  0  0  0  0  0
    7.7138   -1.6590    0.0000 N   0  0  0  0  0  0  0  0  0  0  0  0
    8.0476   -3.1214    0.0000 N   0  0  0  0  0  0  0  0  0  0  0  0
    6.7599   -3.8907    0.0000 N   0  0  0  0  0  0  0  0  0  0  0  0
    6.6254   -5.3847    0.0000 N   0  0  0  0  0  0  0  0  0  0  0  0
    7.7550   -6.3716    0.0000 C   0  0  0  0  0  0  0  0  0  0  0  0
    7.1655   -7.7509    0.0000 C   0  0  0  0  0  0  0  0  0  0  0  0
    5.6715   -7.6164    0.0000 N   0  0  0  0  0  0  0  0  0  0  0  0
    4.6846   -8.7460    0.0000 C   0  0  0  0  0  0  0  0  0  0  0  0
    5.1694  -10.1655    0.0000 O   0  0  0  0  0  0  0  0  0  0  0  0
    3.2129   -8.4561    0.0000 N   0  0  0  0  0  0  0  0  0  0  0  0
    2.2260   -9.5857    0.0000 C   0  0  0  0  0  0  0  0  0  0  0  0
    0.7543   -9.2959    0.0000 N   0  0  0  0  0  0  0  0  0  0  0  0
   -0.2326  -10.4255    0.0000 N   0  0  0  0  0  0  0  0  0  0  0  0
    0.2522  -11.8450    0.0000 N   0  0  0  0  0  0  0  0  0  0  0  0
    1.7239  -12.1348    0.0000 N   0  0  0  0  0  0  0  0  0  0  0  0
    2.7108  -11.0052    0.0000 N   0  0  0  0  0  0  0  0  0  0  0  0
    5.3378   -6.1540    0.0000 C   0  0  0  0  0  0  0  0  0  0  0  0
    3.9585   -5.5645    0.0000 O   0  0  0  0  0  0  0  0  0  0  0  0
    0.7500   -1.2990    0.0000 C   0  0  0  0  0  0  0  0  0  0  0  0
    1.5000    0.0000    0.0000 C   0  0  0  0  0  0  0  0  0  0  0  0
    0.7500    1.2990    0.0000 C   0  0  0  0  0  0  0  0  0  0  0  0
   -0.7500    1.2990    0.0000 C   0  0  0  0  0  0  0  0  0  0  0  0
   -1.5000    0.0000    0.0000 C   0  0  0  0  0  0  0  0  0  0  0  0
   -0.7500   -1.2990    0.0000 C   0  0  0  0  0  0  0  0  0  0  0  0
  1  2  1  0
  2  3  1  0
  3  4  2  0
  4  5  1  0
  5  6  1  0
  6  7  1  0
  7  8  2  0
  7  9  1  0
  9 10  1  0
 10 11  2  0
 11 12  1  0
 12 13  2  0
 13 14  1  0
 14 15  1  0
 15 16  1  0
 16 17  1  0
 17 18  1  0
 18 19  1  0
 19 20  2  0
 19 21  1  0
 21 22  1  0
 22 23  2  0
 23 24  1  0
 24 25  2  0
 25 26  1  0
 26 27  2  0
 18 28  1  0
 28 29  2  0
  6 30  1  0
 30 31  2  0
 31 32  1  0
 32 33  2  0
 33 34  1  0
 34 35  2  0
 35  2  1  0
 14 10  1  0
 28 15  1  0
 35 30  1  0
 27 22  1  0
M  END
>  <Title>  (827) 
idABDWgen14

$$$$

     RDKit          2D

  8  7  0  0  0  0  0  0  0  0999 V2000
    0.0000    0.0000    0.0000 C   0  0  0  0  0  0  0  0  0  0  0  0
    1.2990    0.7500    0.0000 C   0  0  0  0  0  0  0  0  0  0  0  0
    2.5981   -0.0000    0.0000 C   0  0  0  0  0  0  0  0  0  0  0  0
    3.8971    0.7500    0.0000 C   0  0  0  0  0  0  0  0  0  0  0  0
    5.1962   -0.0000    0.0000 C   0  0  0  0  0  0  0  0  0  0  0  0
    6.4952    0.7500    0.0000 C   0  0  0  0  0  0  0  0  0  0  0  0
    7.7942   -0.0000    0.0000 C   0  0  0  0  0  0  0  0  0  0  0  0
    9.0933   -0.7500    0.0000 N   0  0  0  0  0  0  0  0  0  0  0  0
  1  2  2  0
  2  3  1  0
  3  4  1  0
  4  5  1  0
  5  6  1  0
  6  7  1  0
  7  8  3  0
M  END
>  <Title>  (828) 
idABDXgen14

$$$$

     RDKit          2D

 11 11  0  0  0  0  0  0  0  0999 V2000
    5.7760    2.5981    0.0000 C   0  0  0  0  0  0  0  0  0  0  0  0
    5.0260    1.2990    0.0000 C   0  0  0  0  0  0  0  0  0  0  0  0
    5.7760   -0.0000    0.0000 C   0  0  0  0  0  0  0  0  0  0  0  0
    3.5260    1.2990    0.0000 C   0  0  0  0  0  0  0  0  0  0  0  0
    2.7760    0.0000    0.0000 C   0  0  0  0  0  0  0  0  0  0  0  0
    3.5260   -1.2990    0.0000 C   0  0  0  0  0  0  0  0  0  0  0  0
    1.2760    0.0000    0.0000 N   0  0  0  0  0  0  0  0  0  0  0  0
    0.3943    1.2135    0.0000 C   0  0  0  0  0  0  0  0  0  0  0  0
   -1.0323    0.7500    0.0000 C   0  0  0  0  0  0  0  0  0  0  0  0
   -1.0323   -0.7500    0.0000 C   0  0  0  0  0  0  0  0  0  0  0  0
    0.3943   -1.2135    0.0000 C   0  0  0  0  0  0  0  0  0  0  0  0
  1  2  1  0
  2  3  1  0
  2  4  1  0
  4  5  1  0
  5  6  1  0
  5  7  1  0
  7  8  1  0
  8  9  2  0
  9 10  1  0
 10 11  2  0
 11  7  1  0
M  END
>  <Title>  (829) 
idABDYgen14

$$$$

     RDKit          2D

112113  0  0  0  0  0  0  0  0999 V2000
   -2.1460   -1.0913    0.0000 C   0  0  0  0  0  0  0  0  0  0  0  0
   -2.4834    0.3702    0.0000 C   0  0  0  0  0  0  0  0  0  0  0  0
   -3.9542    0.0754    0.0000 C   0  0  0  0  0  0  0  0  0  0  0  0
   -5.4396   -0.1333    0.0000 C   0  0  0  0  0  0  0  0  0  0  0  0
   -6.9346   -0.2554    0.0000 C   0  0  0  0  0  0  0  0  0  0  0  0
   -8.4342   -0.2903    0.0000 C   0  0  0  0  0  0  0  0  0  0  0  0
   -9.9333   -0.2379    0.0000 C   0  0  0  0  0  0  0  0  0  0  0  0
  -11.4268   -0.0985    0.0000 C   0  0  0  0  0  0  0  0  0  0  0  0
  -12.9096    0.1275    0.0000 C   0  0  0  0  0  0  0  0  0  0  0  0
  -14.3769    0.4394    0.0000 C   0  0  0  0  0  0  0  0  0  0  0  0
  -15.8235    0.8361    0.0000 C   0  0  0  0  0  0  0  0  0  0  0  0
  -17.2446    1.3161    0.0000 C   0  0  0  0  0  0  0  0  0  0  0  0
  -18.6353    1.8781    0.0000 C   0  0  0  0  0  0  0  0  0  0  0  0
  -19.9911    2.5199    0.0000 C   0  0  0  0  0  0  0  0  0  0  0  0
  -21.3072    3.2395    0.0000 C   0  0  0  0  0  0  0  0  0  0  0  0
  -22.5793    4.0343    0.0000 C   0  0  0  0  0  0  0  0  0  0  0  0
  -23.8030    4.9018    0.0000 C   0  0  0  0  0  0  0  0  0  0  0  0
  -24.9742    5.8390    0.0000 C   0  0  0  0  0  0  0  0  0  0  0  0
  -26.0889    6.8427    0.0000 C   0  0  0  0  0  0  0  0  0  0  0  0
  -27.1434    7.9095    0.0000 C   0  0  0  0  0  0  0  0  0  0  0  0
  -28.1340    9.0358    0.0000 C   0  0  0  0  0  0  0  0  0  0  0  0
  -29.0575   10.2179    0.0000 C   0  0  0  0  0  0  0  0  0  0  0  0
  -29.9107   11.4516    0.0000 C   0  0  0  0  0  0  0  0  0  0  0  0
  -30.6908   12.7328    0.0000 C   0  0  0  0  0  0  0  0  0  0  0  0
  -31.3950   14.0572    0.0000 C   0  0  0  0  0  0  0  0  0  0  0  0
  -32.0210   15.4204    0.0000 C   0  0  0  0  0  0  0  0  0  0  0  0
  -32.5667   16.8176    0.0000 C   0  0  0  0  0  0  0  0  0  0  0  0
  -33.0302   18.2442    0.0000 C   0  0  0  0  0  0  0  0  0  0  0  0
  -33.4100   19.6953    0.0000 C   0  0  0  0  0  0  0  0  0  0  0  0
  -33.7048   21.1660    0.0000 C   0  0  0  0  0  0  0  0  0  0  0  0
  -33.9135   22.6514    0.0000 C   0  0  0  0  0  0  0  0  0  0  0  0
  -34.0356   24.1465    0.0000 C   0  0  0  0  0  0  0  0  0  0  0  0
  -34.0705   25.6461    0.0000 C   0  0  0  0  0  0  0  0  0  0  0  0
  -34.0181   27.1451    0.0000 C   0  0  0  0  0  0  0  0  0  0  0  0
  -33.8787   28.6386    0.0000 C   0  0  0  0  0  0  0  0  0  0  0  0
  -33.6527   30.1215    0.0000 C   0  0  0  0  0  0  0  0  0  0  0  0
  -33.3408   31.5887    0.0000 C   0  0  0  0  0  0  0  0  0  0  0  0
  -32.9441   33.0353    0.0000 C   0  0  0  0  0  0  0  0  0  0  0  0
  -32.4640   34.4564    0.0000 C   0  0  0  0  0  0  0  0  0  0  0  0
  -31.9021   35.8472    0.0000 C   0  0  0  0  0  0  0  0  0  0  0  0
  -31.2603   37.2030    0.0000 C   0  0  0  0  0  0  0  0  0  0  0  0
  -30.5407   38.5191    0.0000 C   0  0  0  0  0  0  0  0  0  0  0  0
  -29.7459   39.7912    0.0000 C   0  0  0  0  0  0  0  0  0  0  0  0
  -28.8784   41.0149    0.0000 C   0  0  0  0  0  0  0  0  0  0  0  0
  -27.9412   42.1861    0.0000 C   0  0  0  0  0  0  0  0  0  0  0  0
  -26.9375   43.3008    0.0000 C   0  0  0  0  0  0  0  0  0  0  0  0
  -25.8707   44.3553    0.0000 C   0  0  0  0  0  0  0  0  0  0  0  0
  -24.7444   45.3459    0.0000 C   0  0  0  0  0  0  0  0  0  0  0  0
  -23.5623   46.2694    0.0000 C   0  0  0  0  0  0  0  0  0  0  0  0
  -22.3286   47.1226    0.0000 C   0  0  0  0  0  0  0  0  0  0  0  0
  -21.0474   47.9026    0.0000 C   0  0  0  0  0  0  0  0  0  0  0  0
  -19.7230   48.6068    0.0000 C   0  0  0  0  0  0  0  0  0  0  0  0
  -18.3598   49.2328    0.0000 C   0  0  0  0  0  0  0  0  0  0  0  0
  -16.9626   49.7785    0.0000 C   0  0  0  0  0  0  0  0  0  0  0  0
  -15.5360   50.2421    0.0000 C   0  0  0  0  0  0  0  0  0  0  0  0
  -14.0849   50.6219    0.0000 C   0  0  0  0  0  0  0  0  0  0  0  0
  -12.6142   50.9166    0.0000 C   0  0  0  0  0  0  0  0  0  0  0  0
  -11.1288   51.1254    0.0000 C   0  0  0  0  0  0  0  0  0  0  0  0
   -9.6337   51.2474    0.0000 C   0  0  0  0  0  0  0  0  0  0  0  0
   -8.1341   51.2823    0.0000 C   0  0  0  0  0  0  0  0  0  0  0  0
   -6.6351   51.2300    0.0000 C   0  0  0  0  0  0  0  0  0  0  0  0
   -5.1416   51.0906    0.0000 C   0  0  0  0  0  0  0  0  0  0  0  0
   -3.6587   50.8645    0.0000 C   0  0  0  0  0  0  0  0  0  0  0  0
   -2.1915   50.5527    0.0000 C   0  0  0  0  0  0  0  0  0  0  0  0
   -0.7449   50.1560    0.0000 C   0  0  0  0  0  0  0  0  0  0  0  0
    0.6762   49.6759    0.0000 C   0  0  0  0  0  0  0  0  0  0  0  0
    2.0670   49.1140    0.0000 C   0  0  0  0  0  0  0  0  0  0  0  0
    3.4228   48.4722    0.0000 C   0  0  0  0  0  0  0  0  0  0  0  0
    4.7389   47.7526    0.0000 C   0  0  0  0  0  0  0  0  0  0  0  0
    6.0110   46.9577    0.0000 C   0  0  0  0  0  0  0  0  0  0  0  0
    7.2347   46.0902    0.0000 C   0  0  0  0  0  0  0  0  0  0  0  0
    8.4059   45.1531    0.0000 C   0  0  0  0  0  0  0  0  0  0  0  0
    9.5206   44.1494    0.0000 C   0  0  0  0  0  0  0  0  0  0  0  0
   10.5751   43.0825    0.0000 C   0  0  0  0  0  0  0  0  0  0  0  0
   11.5657   41.9562    0.0000 C   0  0  0  0  0  0  0  0  0  0  0  0
   12.4892   40.7742    0.0000 C   0  0  0  0  0  0  0  0  0  0  0  0
   13.3424   39.5405    0.0000 C   0  0  0  0  0  0  0  0  0  0  0  0
   14.1224   38.2593    0.0000 C   0  0  0  0  0  0  0  0  0  0  0  0
   14.8266   36.9348    0.0000 C   0  0  0  0  0  0  0  0  0  0  0  0
   15.4527   35.5717    0.0000 C   0  0  0  0  0  0  0  0  0  0  0  0
   15.9983   34.1745    0.0000 C   0  0  0  0  0  0  0  0  0  0  0  0
   16.4619   32.7479    0.0000 C   0  0  0  0  0  0  0  0  0  0  0  0
   16.8417   31.2968    0.0000 C   0  0  0  0  0  0  0  0  0  0  0  0
   17.1364   29.8260    0.0000 C   0  0  0  0  0  0  0  0  0  0  0  0
   17.3452   28.3406    0.0000 C   0  0  0  0  0  0  0  0  0  0  0  0
   17.4672   26.8456    0.0000 C   0  0  0  0  0  0  0  0  0  0  0  0
   17.5021   25.3460    0.0000 C   0  0  0  0  0  0  0  0  0  0  0  0
   17.4498   23.8469    0.0000 C   0  0  0  0  0  0  0  0  0  0  0  0
   17.3104   22.3534    0.0000 C   0  0  0  0  0  0  0  0  0  0  0  0
   17.0843   20.8705    0.0000 C   0  0  0  0  0  0  0  0  0  0  0  0
   16.7725   19.4033    0.0000 C   0  0  0  0  0  0  0  0  0  0  0  0
   16.3758   17.9567    0.0000 C   0  0  0  0  0  0  0  0  0  0  0  0
   15.8957   16.5356    0.0000 C   0  0  0  0  0  0  0  0  0  0  0  0
   15.3338   15.1448    0.0000 C   0  0  0  0  0  0  0  0  0  0  0  0
   14.6920   13.7891    0.0000 C   0  0  0  0  0  0  0  0  0  0  0  0
   13.9724   12.4730    0.0000 C   0  0  0  0  0  0  0  0  0  0  0  0
   13.1775   11.2009    0.0000 C   0  0  0  0  0  0  0  0  0  0  0  0
   12.3100    9.9772    0.0000 C   0  0  0  0  0  0  0  0  0  0  0  0
   11.3729    8.8060    0.0000 C   0  0  0  0  0  0  0  0  0  0  0  0
   10.3692    7.6913    0.0000 C   0  0  0  0  0  0  0  0  0  0  0  0
    9.3023    6.6368    0.0000 C   0  0  0  0  0  0  0  0  0  0  0  0
    8.1760    5.6461    0.0000 C   0  0  0  0  0  0  0  0  0  0  0  0
    6.9940    4.7227    0.0000 C   0  0  0  0  0  0  0  0  0  0  0  0
    5.7603    3.8695    0.0000 C   0  0  0  0  0  0  0  0  0  0  0  0
    4.4791    3.0894    0.0000 C   0  0  0  0  0  0  0  0  0  0  0  0
    3.1546    2.3852    0.0000 C   0  0  0  0  0  0  0  0  0  0  0  0
    1.7915    1.7592    0.0000 C   0  0  0  0  0  0  0  0  0  0  0  0
    0.3943    1.2135    0.0000 C   0  0  0  0  0  0  0  0  0  0  0  0
    1.2760    0.0000    0.0000 C   0  0  0  0  0  0  0  0  0  0  0  0
    0.3943   -1.2135    0.0000 C   0  0  0  0  0  0  0  0  0  0  0  0
   -1.0323   -0.7500    0.0000 C   0  0  0  0  0  0  0  0  0  0  0  0
   -1.0323    0.7500    0.0000 C   0  0  0  0  0  0  0  0  0  0  0  0
  1  2  1  0
  2  3  1  0
  3  4  1  0
  4  5  1  0
  5  6  1  0
  6  7  1  0
  7  8  1  0
  8  9  1  0
  9 10  1  0
 10 11  1  0
 11 12  1  0
 12 13  1  0
 13 14  1  0
 14 15  1  0
 15 16  1  0
 16 17  1  0
 17 18  1  0
 18 19  1  0
 19 20  1  0
 20 21  1  0
 21 22  1  0
 22 23  1  0
 23 24  1  0
 24 25  1  0
 25 26  1  0
 26 27  1  0
 27 28  1  0
 28 29  1  0
 29 30  1  0
 30 31  1  0
 31 32  1  0
 32 33  1  0
 33 34  1  0
 34 35  1  0
 35 36  1  0
 36 37  1  0
 37 38  1  0
 38 39  1  0
 39 40  1  0
 40 41  1  0
 41 42  1  0
 42 43  1  0
 43 44  1  0
 44 45  1  0
 45 46  1  0
 46 47  1  0
 47 48  1  0
 48 49  1  0
 49 50  1  0
 50 51  1  0
 51 52  1  0
 52 53  1  0
 53 54  1  0
 54 55  1  0
 55 56  1  0
 56 57  1  0
 57 58  1  0
 58 59  1  0
 59 60  1  0
 60 61  1  0
 61 62  1  0
 62 63  1  0
 63 64  1  0
 64 65  1  0
 65 66  1  0
 66 67  1  0
 67 68  1  0
 68 69  1  0
 69 70  1  0
 70 71  1  0
 71 72  1  0
 72 73  1  0
 73 74  1  0
 74 75  1  0
 75 76  1  0
 76 77  1  0
 77 78  1  0
 78 79  1  0
 79 80  1  0
 80 81  1  0
 81 82  1  0
 82 83  1  0
 83 84  1  0
 84 85  1  0
 85 86  1  0
 86 87  1  0
 87 88  1  0
 88 89  1  0
 89 90  1  0
 90 91  1  0
 91 92  1  0
 92 93  1  0
 93 94  1  0
 94 95  1  0
 95 96  1  0
 96 97  1  0
 97 98  2  0
 98 99  1  0
 99100  2  0
100101  1  0
101102  2  0
102103  1  0
103104  2  0
104105  1  0
105106  2  0
106107  1  0
107108  2  0
108109  1  0
109110  2  0
110111  1  0
111112  2  0
112  2  1  0
112108  1  0
M  END
>  <Title>  (830) 
idABDZgen14

$$$$

     RDKit          2D

 15 15  0  0  0  0  0  0  0  0999 V2000
   10.5000   -5.1962    0.0000 C   0  0  0  0  0  0  0  0  0  0  0  0
    9.7500   -3.8971    0.0000 C   0  0  0  0  0  0  0  0  0  0  0  0
    8.2500   -3.8971    0.0000 C   0  0  0  0  0  0  0  0  0  0  0  0
    7.5000   -2.5981    0.0000 N   0  0  0  0  0  0  0  0  0  0  0  0
    6.0000   -2.5981    0.0000 C   0  0  0  0  0  0  0  0  0  0  0  0
    5.2500   -3.8971    0.0000 O   0  0  0  0  0  0  0  0  0  0  0  0
    5.2500   -1.2990    0.0000 C   0  0  0  0  0  0  0  0  0  0  0  0
    3.7500   -1.2990    0.0000 C   0  0  0  0  0  0  0  0  0  0  0  0
    3.0000    0.0000    0.0000 C   0  0  0  0  0  0  0  0  0  0  0  0
    1.5000    0.0000    0.0000 C   0  0  0  0  0  0  0  0  0  0  0  0
    0.7500   -1.2990    0.0000 C   0  0  0  0  0  0  0  0  0  0  0  0
   -0.7500   -1.2990    0.0000 C   0  0  0  0  0  0  0  0  0  0  0  0
   -1.5000    0.0000    0.0000 C   0  0  0  0  0  0  0  0  0  0  0  0
   -0.7500    1.2990    0.0000 N   0  0  0  0  0  0  0  0  0  0  0  0
    0.7500    1.2990    0.0000 C   0  0  0  0  0  0  0  0  0  0  0  0
  1  2  1  0
  2  3  2  3
  3  4  1  0
  4  5  1  0
  5  6  2  0
  5  7  1  0
  7  8  1  0
  8  9  1  0
  9 10  1  0
 10 11  2  0
 11 12  1  0
 12 13  2  0
 13 14  1  0
 14 15  2  0
 15 10  1  0
M  END
>  <Title>  (831) 
idABEAgen14

$$$$

     RDKit          2D

  7  6  0  0  0  0  0  0  0  0999 V2000
    0.0000    0.0000    0.0000 C   0  0  0  0  0  0  0  0  0  0  0  0
   -0.0000   -1.5000    0.0000 C   0  0  0  0  0  0  0  0  0  0  0  0
   -0.0000   -3.0000    0.0000 C   0  0  0  0  0  0  0  0  0  0  0  0
    1.2990   -3.7500    0.0000 C   0  0  0  0  0  0  0  0  0  0  0  0
    1.2990   -5.2500    0.0000 C   0  0  0  0  0  0  0  0  0  0  0  0
    2.5981   -3.0000    0.0000 O   0  0  0  0  0  0  0  0  0  0  0  0
    3.8971   -3.7500    0.0000 C   0  0  0  0  0  0  0  0  0  0  0  0
  1  2  3  0
  2  3  1  0
  3  4  1  0
  4  5  1  0
  4  6  1  0
  6  7  1  0
M  END
>  <Title>  (832) 
idABEBgen14

$$$$

     RDKit          2D

 36 40  0  0  0  0  0  0  0  0999 V2000
   -3.0000   -2.5981    0.0000 C   0  0  0  0  0  0  0  0  0  0  0  0
   -1.5000   -2.5981    0.0000 C   0  0  0  0  0  0  0  0  0  0  0  0
   -0.7500   -3.8971    0.0000 C   0  0  0  0  0  0  0  0  0  0  0  0
    0.7500   -3.8971    0.0000 C   0  0  0  0  0  0  0  0  0  0  0  0
    1.5000   -2.5981    0.0000 C   0  0  0  0  0  0  0  0  0  0  0  0
    3.0000   -2.5981    0.0000 C   0  0  0  0  0  0  0  0  0  0  0  0
    3.7500   -1.2990    0.0000 O   0  0  0  0  0  0  0  0  0  0  0  0
    3.7500   -3.8971    0.0000 N   0  0  0  0  0  0  0  0  0  0  0  0
    5.2500   -3.8971    0.0000 C   0  0  0  0  0  0  0  0  0  0  0  0
    6.1317   -2.6836    0.0000 N   0  0  0  0  0  0  0  0  0  0  0  0
    7.5583   -3.1471    0.0000 N   0  0  0  0  0  0  0  0  0  0  0  0
    7.5583   -4.6471    0.0000 N   0  0  0  0  0  0  0  0  0  0  0  0
    6.1317   -5.1106    0.0000 N   0  0  0  0  0  0  0  0  0  0  0  0
    5.6682   -6.5372    0.0000 C   0  0  0  0  0  0  0  0  0  0  0  0
    6.5498   -7.7508    0.0000 C   0  0  0  0  0  0  0  0  0  0  0  0
    5.6682   -8.9643    0.0000 C   0  0  0  0  0  0  0  0  0  0  0  0
    4.2416   -8.5008    0.0000 C   0  0  0  0  0  0  0  0  0  0  0  0
    3.0280   -9.3824    0.0000 O   0  0  0  0  0  0  0  0  0  0  0  0
    1.6577   -8.7723    0.0000 C   0  0  0  0  0  0  0  0  0  0  0  0
    1.5009   -7.2805    0.0000 O   0  0  0  0  0  0  0  0  0  0  0  0
    0.4442   -9.6540    0.0000 N   0  0  0  0  0  0  0  0  0  0  0  0
   -0.9261   -9.0439    0.0000 C   0  0  0  0  0  0  0  0  0  0  0  0
   -1.0829   -7.5521    0.0000 N   0  0  0  0  0  0  0  0  0  0  0  0
   -2.4532   -6.9420    0.0000 N   0  0  0  0  0  0  0  0  0  0  0  0
   -3.6668   -7.8237    0.0000 N   0  0  0  0  0  0  0  0  0  0  0  0
   -3.5100   -9.3155    0.0000 N   0  0  0  0  0  0  0  0  0  0  0  0
   -2.1396   -9.9256    0.0000 N   0  0  0  0  0  0  0  0  0  0  0  0
    4.2416   -7.0008    0.0000 C   0  0  0  0  0  0  0  0  0  0  0  0
    3.0280   -6.1191    0.0000 O   0  0  0  0  0  0  0  0  0  0  0  0
    0.7500   -1.2990    0.0000 C   0  0  0  0  0  0  0  0  0  0  0  0
    1.5000    0.0000    0.0000 C   0  0  0  0  0  0  0  0  0  0  0  0
    0.7500    1.2990    0.0000 C   0  0  0  0  0  0  0  0  0  0  0  0
   -0.7500    1.2990    0.0000 C   0  0  0  0  0  0  0  0  0  0  0  0
   -1.5000    2.5981    0.0000 O   0  0  0  0  0  0  0  0  0  0  0  0
   -1.5000    0.0000    0.0000 C   0  0  0  0  0  0  0  0  0  0  0  0
   -0.7500   -1.2990    0.0000 C   0  0  0  0  0  0  0  0  0  0  0  0
  1  2  1  0
  2  3  2  0
  3  4  1  0
  4  5  2  0
  5  6  1  0
  6  7  2  0
  6  8  1  0
  8  9  1  0
  9 10  2  0
 10 11  1  0
 11 12  2  0
 12 13  1  0
 13 14  1  0
 14 15  2  0
 15 16  1  0
 16 17  2  0
 17 18  1  0
 18 19  1  0
 19 20  2  0
 19 21  1  0
 21 22  1  0
 22 23  2  0
 23 24  1  0
 24 25  2  0
 25 26  1  0
 26 27  2  0
 17 28  1  0
 28 29  2  0
  5 30  1  0
 30 31  2  0
 31 32  1  0
 32 33  2  0
 33 34  1  0
 33 35  1  0
 35 36  2  0
 36  2  1  0
 13  9  1  0
 28 14  1  0
 36 30  1  0
 27 22  1  0
M  END
>  <Title>  (833) 
idABECgen14

$$$$

     RDKit          2D

 83 84  0  0  0  0  0  0  0  0999 V2000
   -2.2007   -1.0703    0.0000 C   0  0  0  0  0  0  0  0  0  0  0  0
   -2.4912    0.4013    0.0000 C   0  0  0  0  0  0  0  0  0  0  0  0
   -3.9732    0.1696    0.0000 C   0  0  0  0  0  0  0  0  0  0  0  0
   -5.4689    0.0563    0.0000 C   0  0  0  0  0  0  0  0  0  0  0  0
   -6.9689    0.0623    0.0000 C   0  0  0  0  0  0  0  0  0  0  0  0
   -8.4637    0.1874    0.0000 C   0  0  0  0  0  0  0  0  0  0  0  0
   -9.9438    0.4309    0.0000 C   0  0  0  0  0  0  0  0  0  0  0  0
  -11.3999    0.7912    0.0000 C   0  0  0  0  0  0  0  0  0  0  0  0
  -12.8227    1.2661    0.0000 C   0  0  0  0  0  0  0  0  0  0  0  0
  -14.2033    1.8525    0.0000 C   0  0  0  0  0  0  0  0  0  0  0  0
  -15.5330    2.5467    0.0000 C   0  0  0  0  0  0  0  0  0  0  0  0
  -16.8033    3.3444    0.0000 C   0  0  0  0  0  0  0  0  0  0  0  0
  -18.0062    4.2405    0.0000 C   0  0  0  0  0  0  0  0  0  0  0  0
  -19.1342    5.2293    0.0000 C   0  0  0  0  0  0  0  0  0  0  0  0
  -20.1800    6.3047    0.0000 C   0  0  0  0  0  0  0  0  0  0  0  0
  -21.1370    7.4597    0.0000 C   0  0  0  0  0  0  0  0  0  0  0  0
  -21.9993    8.6871    0.0000 C   0  0  0  0  0  0  0  0  0  0  0  0
  -22.7613    9.9791    0.0000 C   0  0  0  0  0  0  0  0  0  0  0  0
  -23.4183   11.3276    0.0000 C   0  0  0  0  0  0  0  0  0  0  0  0
  -23.9660   12.7240    0.0000 C   0  0  0  0  0  0  0  0  0  0  0  0
  -24.4011   14.1595    0.0000 C   0  0  0  0  0  0  0  0  0  0  0  0
  -24.7207   15.6250    0.0000 C   0  0  0  0  0  0  0  0  0  0  0  0
  -24.9229   17.1114    0.0000 C   0  0  0  0  0  0  0  0  0  0  0  0
  -25.0064   18.6090    0.0000 C   0  0  0  0  0  0  0  0  0  0  0  0
  -24.9706   20.1086    0.0000 C   0  0  0  0  0  0  0  0  0  0  0  0
  -24.8158   21.6006    0.0000 C   0  0  0  0  0  0  0  0  0  0  0  0
  -24.5429   23.0756    0.0000 C   0  0  0  0  0  0  0  0  0  0  0  0
  -24.1537   24.5242    0.0000 C   0  0  0  0  0  0  0  0  0  0  0  0
  -23.6507   25.9373    0.0000 C   0  0  0  0  0  0  0  0  0  0  0  0
  -23.0369   27.3060    0.0000 C   0  0  0  0  0  0  0  0  0  0  0  0
  -22.3164   28.6216    0.0000 C   0  0  0  0  0  0  0  0  0  0  0  0
  -21.4936   29.8758    0.0000 C   0  0  0  0  0  0  0  0  0  0  0  0
  -20.5738   31.0607    0.0000 C   0  0  0  0  0  0  0  0  0  0  0  0
  -19.5627   32.1687    0.0000 C   0  0  0  0  0  0  0  0  0  0  0  0
  -18.4668   33.1930    0.0000 C   0  0  0  0  0  0  0  0  0  0  0  0
  -17.2930   34.1269    0.0000 C   0  0  0  0  0  0  0  0  0  0  0  0
  -16.0487   34.9645    0.0000 C   0  0  0  0  0  0  0  0  0  0  0  0
  -14.7418   35.7007    0.0000 C   0  0  0  0  0  0  0  0  0  0  0  0
  -13.3805   36.3307    0.0000 C   0  0  0  0  0  0  0  0  0  0  0  0
  -11.9735   36.8506    0.0000 C   0  0  0  0  0  0  0  0  0  0  0  0
  -10.5296   37.2571    0.0000 C   0  0  0  0  0  0  0  0  0  0  0  0
   -9.0580   37.5475    0.0000 C   0  0  0  0  0  0  0  0  0  0  0  0
   -7.5680   37.7201    0.0000 C   0  0  0  0  0  0  0  0  0  0  0  0
   -6.0689   37.7738    0.0000 C   0  0  0  0  0  0  0  0  0  0  0  0
   -4.5704   37.7082    0.0000 C   0  0  0  0  0  0  0  0  0  0  0  0
   -3.0817   37.5237    0.0000 C   0  0  0  0  0  0  0  0  0  0  0  0
   -1.6125   37.2216    0.0000 C   0  0  0  0  0  0  0  0  0  0  0  0
   -0.1719   36.8037    0.0000 C   0  0  0  0  0  0  0  0  0  0  0  0
    1.2310   36.2726    0.0000 C   0  0  0  0  0  0  0  0  0  0  0  0
    2.5872   35.6318    0.0000 C   0  0  0  0  0  0  0  0  0  0  0  0
    3.8882   34.8853    0.0000 C   0  0  0  0  0  0  0  0  0  0  0  0
    5.1258   34.0377    0.0000 C   0  0  0  0  0  0  0  0  0  0  0  0
    6.2922   33.0945    0.0000 C   0  0  0  0  0  0  0  0  0  0  0  0
    7.3799   32.0616    0.0000 C   0  0  0  0  0  0  0  0  0  0  0  0
    8.3821   30.9456    0.0000 C   0  0  0  0  0  0  0  0  0  0  0  0
    9.2925   29.7534    0.0000 C   0  0  0  0  0  0  0  0  0  0  0  0
   10.1053   28.4927    0.0000 C   0  0  0  0  0  0  0  0  0  0  0  0
   10.8153   27.1714    0.0000 C   0  0  0  0  0  0  0  0  0  0  0  0
   11.4181   25.7979    0.0000 C   0  0  0  0  0  0  0  0  0  0  0  0
   11.9099   24.3808    0.0000 C   0  0  0  0  0  0  0  0  0  0  0  0
   12.2876   22.9291    0.0000 C   0  0  0  0  0  0  0  0  0  0  0  0
   12.5487   21.4520    0.0000 C   0  0  0  0  0  0  0  0  0  0  0  0
   12.6917   19.9588    0.0000 C   0  0  0  0  0  0  0  0  0  0  0  0
   12.7155   18.4590    0.0000 C   0  0  0  0  0  0  0  0  0  0  0  0
   12.6201   16.9621    0.0000 C   0  0  0  0  0  0  0  0  0  0  0  0
   12.4061   15.4774    0.0000 C   0  0  0  0  0  0  0  0  0  0  0  0
   12.0748   14.0144    0.0000 C   0  0  0  0  0  0  0  0  0  0  0  0
   11.6284   12.5824    0.0000 C   0  0  0  0  0  0  0  0  0  0  0  0
   11.0695   11.1904    0.0000 C   0  0  0  0  0  0  0  0  0  0  0  0
   10.4019    9.8472    0.0000 C   0  0  0  0  0  0  0  0  0  0  0  0
    9.6296    8.5613    0.0000 C   0  0  0  0  0  0  0  0  0  0  0  0
    8.7576    7.3408    0.0000 C   0  0  0  0  0  0  0  0  0  0  0  0
    7.7914    6.1934    0.0000 C   0  0  0  0  0  0  0  0  0  0  0  0
    6.7371    5.1265    0.0000 C   0  0  0  0  0  0  0  0  0  0  0  0
    5.6013    4.1466    0.0000 C   0  0  0  0  0  0  0  0  0  0  0  0
    4.3913    3.2601    0.0000 C   0  0  0  0  0  0  0  0  0  0  0  0
    3.1147    2.4726    0.0000 C   0  0  0  0  0  0  0  0  0  0  0  0
    1.7795    1.7889    0.0000 C   0  0  0  0  0  0  0  0  0  0  0  0
    0.3943    1.2135    0.0000 C   0  0  0  0  0  0  0  0  0  0  0  0
    1.2760    0.0000    0.0000 C   0  0  0  0  0  0  0  0  0  0  0  0
    0.3943   -1.2135    0.0000 C   0  0  0  0  0  0  0  0  0  0  0  0
   -1.0323   -0.7500    0.0000 C   0  0  0  0  0  0  0  0  0  0  0  0
   -1.0323    0.7500    0.0000 C   0  0  0  0  0  0  0  0  0  0  0  0
  1  2  1  0
  2  3  1  0
  3  4  1  0
  4  5  1  0
  5  6  1  0
  6  7  1  0
  7  8  1  0
  8  9  1  0
  9 10  1  0
 10 11  1  0
 11 12  1  0
 12 13  1  0
 13 14  1  0
 14 15  1  0
 15 16  1  0
 16 17  1  0
 17 18  1  0
 18 19  1  0
 19 20  1  0
 20 21  1  0
 21 22  1  0
 22 23  1  0
 23 24  1  0
 24 25  1  0
 25 26  1  0
 26 27  1  0
 27 28  1  0
 28 29  1  0
 29 30  1  0
 30 31  1  0
 31 32  1  0
 32 33  1  0
 33 34  1  0
 34 35  1  0
 35 36  1  0
 36 37  1  0
 37 38  1  0
 38 39  1  0
 39 40  1  0
 40 41  1  0
 41 42  1  0
 42 43  1  0
 43 44  1  0
 44 45  1  0
 45 46  1  0
 46 47  1  0
 47 48  1  0
 48 49  1  0
 49 50  1  0
 50 51  1  0
 51 52  1  0
 52 53  1  0
 53 54  1  0
 54 55  1  0
 55 56  1  0
 56 57  1  0
 57 58  1  0
 58 59  1  0
 59 60  1  0
 60 61  1  0
 61 62  1  0
 62 63  1  0
 63 64  1  0
 64 65  1  0
 65 66  1  0
 66 67  1  0
 67 68  1  0
 68 69  1  0
 69 70  1  0
 70 71  1  0
 71 72  1  0
 72 73  1  0
 73 74  1  0
 74 75  2  0
 75 76  1  0
 76 77  2  0
 77 78  1  0
 78 79  2  0
 79 80  1  0
 80 81  2  0
 81 82  1  0
 82 83  2  0
 83  2  1  0
 83 79  1  0
M  END
>  <Title>  (834) 
idABEDgen14

$$$$

     RDKit          2D

  9  9  0  0  0  0  0  0  0  0999 V2000
    3.7500   -1.2990    0.0000 C   0  0  0  0  0  0  0  0  0  0  0  0
    3.0000    0.0000    0.0000 C   0  0  0  0  0  0  0  0  0  0  0  0
    3.7500    1.2990    0.0000 O   0  0  0  0  0  0  0  0  0  0  0  0
    1.5000    0.0000    0.0000 N   0  0  0  0  0  0  0  0  0  0  0  0
    0.7500   -1.2990    0.0000 C   0  0  0  0  0  0  0  0  0  0  0  0
   -0.7500   -1.2990    0.0000 C   0  0  0  0  0  0  0  0  0  0  0  0
   -1.5000    0.0000    0.0000 C   0  0  0  0  0  0  0  0  0  0  0  0
   -0.7500    1.2990    0.0000 C   0  0  0  0  0  0  0  0  0  0  0  0
    0.7500    1.2990    0.0000 C   0  0  0  0  0  0  0  0  0  0  0  0
  1  2  1  0
  2  3  2  0
  2  4  1  0
  4  5  1  0
  5  6  2  0
  6  7  2  0
  7  8  1  0
  8  9  2  0
  9  4  1  0
M  END
>  <Title>  (835) 
idABEEgen14

$$$$

     RDKit          2D

  7  6  0  0  0  0  0  0  0  0999 V2000
    0.0000    0.0000    0.0000 C   0  0  0  0  0  0  0  0  0  0  0  0
   -0.0000   -1.5000    0.0000 C   0  0  0  0  0  0  0  0  0  0  0  0
   -0.0000   -3.0000    0.0000 C   0  0  0  0  0  0  0  0  0  0  0  0
   -0.0000   -4.5000    0.0000 C   0  0  0  0  0  0  0  0  0  0  0  0
   -0.0000   -6.0000    0.0000 C   0  0  0  0  0  0  0  0  0  0  0  0
    1.2990   -6.7500    0.0000 C   0  0  0  0  0  0  0  0  0  0  0  0
    1.2990   -8.2500    0.0000 C   0  0  0  0  0  0  0  0  0  0  0  0
  1  2  3  0
  2  3  1  0
  3  4  3  0
  4  5  1  0
  5  6  1  0
  6  7  1  0
M  END
>  <Title>  (836) 
idABEFgen14

$$$$

     RDKit          2D

  7  6  0  0  0  0  0  0  0  0999 V2000
    0.0000    0.0000    0.0000 C   0  0  0  0  0  0  0  0  0  0  0  0
    1.2990    0.7500    0.0000 C   0  0  0  0  0  0  0  0  0  0  0  0
    2.5981   -0.0000    0.0000 C   0  0  0  0  0  0  0  0  0  0  0  0
    3.8971    0.7500    0.0000 C   0  0  0  0  0  0  0  0  0  0  0  0
    5.1962   -0.0000    0.0000 C   0  0  0  0  0  0  0  0  0  0  0  0
    3.8971    2.2500    0.0000 O   0  0  0  0  0  0  0  0  0  0  0  0
    5.1962    3.0000    0.0000 C   0  0  0  0  0  0  0  0  0  0  0  0
  1  2  2  0
  2  3  1  0
  3  4  1  0
  4  5  1  0
  4  6  1  0
  6  7  1  0
M  END
>  <Title>  (837) 
idABEGgen14

$$$$

     RDKit          2D

  8  7  0  0  0  0  0  0  0  0999 V2000
    0.0000    0.0000    0.0000 C   0  0  0  0  0  0  0  0  0  0  0  0
    1.2990    0.7500    0.0000 C   0  0  0  0  0  0  0  0  0  0  0  0
    2.5981   -0.0000    0.0000 C   0  0  0  0  0  0  0  0  0  0  0  0
    3.8971    0.7500    0.0000 C   0  0  0  0  0  0  0  0  0  0  0  0
    5.1962   -0.0000    0.0000 C   0  0  0  0  0  0  0  0  0  0  0  0
    6.4952    0.7500    0.0000 C   0  0  0  0  0  0  0  0  0  0  0  0
    7.7942   -0.0000    0.0000 C   0  0  0  0  0  0  0  0  0  0  0  0
    9.0933   -0.7500    0.0000 N   0  0  0  0  0  0  0  0  0  0  0  0
  1  2  1  0
  2  3  2  3
  3  4  1  0
  4  5  1  0
  5  6  1  0
  6  7  1  0
  7  8  3  0
M  END
>  <Title>  (838) 
idABEHgen14

$$$$

     RDKit          2D

 14 15  0  0  0  0  0  0  0  0999 V2000
    3.2286   -0.0000    0.0000 C   0  0  0  0  0  0  0  0  0  0  0  0
    1.7286    0.0000    0.0000 C   0  0  0  0  0  0  0  0  0  0  0  0
    1.0777    1.3515    0.0000 C   0  0  0  0  0  0  0  0  0  0  0  0
   -0.3846    1.6852    0.0000 C   0  0  0  0  0  0  0  0  0  0  0  0
   -1.5574    0.7500    0.0000 C   0  0  0  0  0  0  0  0  0  0  0  0
   -1.5574   -0.7500    0.0000 C   0  0  0  0  0  0  0  0  0  0  0  0
   -2.9088   -1.4008    0.0000 N   0  0  0  0  0  0  0  0  0  0  0  0
   -4.1482   -0.5558    0.0000 C   0  0  0  0  0  0  0  0  0  0  0  0
   -5.4997   -1.2067    0.0000 C   0  0  0  0  0  0  0  0  0  0  0  0
   -5.6118   -2.7025    0.0000 N   0  0  0  0  0  0  0  0  0  0  0  0
   -4.3724   -3.5475    0.0000 N   0  0  0  0  0  0  0  0  0  0  0  0
   -3.0209   -2.8966    0.0000 N   0  0  0  0  0  0  0  0  0  0  0  0
   -0.3846   -1.6852    0.0000 C   0  0  0  0  0  0  0  0  0  0  0  0
    1.0777   -1.3515    0.0000 C   0  0  0  0  0  0  0  0  0  0  0  0
  1  2  1  0
  2  3  2  0
  3  4  1  0
  4  5  1  0
  5  6  1  0
  6  7  1  0
  7  8  1  0
  8  9  1  0
  9 10  2  0
 10 11  1  0
 11 12  2  0
  6 13  1  0
 13 14  2  0
 14  2  1  0
 12  7  1  0
M  END
>  <Title>  (839) 
idABEIgen14

$$$$

     RDKit          2D

 30 29  0  0  0  0  0  0  0  0999 V2000
    0.0000    0.0000    0.0000 C   0  0  0  0  0  0  0  0  0  0  0  0
   -0.0000   -1.5000    0.0000 C   0  0  0  0  0  0  0  0  0  0  0  0
   -0.0000   -3.0000    0.0000 C   0  0  0  0  0  0  0  0  0  0  0  0
   -0.0000   -4.5000    0.0000 C   0  0  0  0  0  0  0  0  0  0  0  0
   -0.0000   -6.0000    0.0000 C   0  0  0  0  0  0  0  0  0  0  0  0
   -0.0000   -7.5000    0.0000 C   0  0  0  0  0  0  0  0  0  0  0  0
   -0.0000   -9.0000    0.0000 C   0  0  0  0  0  0  0  0  0  0  0  0
   -0.0000  -10.5000    0.0000 C   0  0  0  0  0  0  0  0  0  0  0  0
   -0.0000  -12.0000    0.0000 C   0  0  0  0  0  0  0  0  0  0  0  0
   -0.0000  -13.5000    0.0000 C   0  0  0  0  0  0  0  0  0  0  0  0
   -0.0000  -15.0000    0.0000 C   0  0  0  0  0  0  0  0  0  0  0  0
   -0.0000  -16.5000    0.0000 C   0  0  0  0  0  0  0  0  0  0  0  0
   -0.0000  -18.0000    0.0000 C   0  0  0  0  0  0  0  0  0  0  0  0
   -0.0000  -19.5000    0.0000 C   0  0  0  0  0  0  0  0  0  0  0  0
   -0.0000  -21.0000    0.0000 C   0  0  0  0  0  0  0  0  0  0  0  0
   -0.0000  -22.5000    0.0000 C   0  0  0  0  0  0  0  0  0  0  0  0
   -0.0000  -24.0000    0.0000 C   0  0  0  0  0  0  0  0  0  0  0  0
   -0.0000  -25.5000    0.0000 C   0  0  0  0  0  0  0  0  0  0  0  0
   -0.0000  -27.0000    0.0000 C   0  0  0  0  0  0  0  0  0  0  0  0
   -0.0000  -28.5000    0.0000 C   0  0  0  0  0  0  0  0  0  0  0  0
   -0.0000  -30.0000    0.0000 C   0  0  0  0  0  0  0  0  0  0  0  0
   -0.0000  -31.5000    0.0000 C   0  0  0  0  0  0  0  0  0  0  0  0
   -0.0000  -33.0000    0.0000 C   0  0  0  0  0  0  0  0  0  0  0  0
   -0.0000  -34.5000    0.0000 C   0  0  0  0  0  0  0  0  0  0  0  0
   -0.0000  -36.0000    0.0000 C   0  0  0  0  0  0  0  0  0  0  0  0
   -0.0000  -37.5000    0.0000 C   0  0  0  0  0  0  0  0  0  0  0  0
   -0.0000  -39.0000    0.0000 C   0  0  0  0  0  0  0  0  0  0  0  0
    1.2990  -39.7500    0.0000 C   0  0  0  0  0  0  0  0  0  0  0  0
    1.2990  -41.2500    0.0000 C   0  0  0  0  0  0  0  0  0  0  0  0
    2.5981  -42.0000    0.0000 C   0  0  0  0  0  0  0  0  0  0  0  0
  1  2  3  0
  2  3  1  0
  3  4  3  0
  4  5  1  0
  5  6  3  0
  6  7  1  0
  7  8  3  0
  8  9  1  0
  9 10  3  0
 10 11  1  0
 11 12  3  0
 12 13  1  0
 13 14  3  0
 14 15  1  0
 15 16  3  0
 16 17  1  0
 17 18  3  0
 18 19  1  0
 19 20  3  0
 20 21  1  0
 21 22  3  0
 22 23  1  0
 23 24  3  0
 24 25  1  0
 25 26  3  0
 26 27  1  0
 27 28  2  3
 28 29  1  0
 29 30  2  0
M  END
>  <Title>  (840) 
idABEJgen14

$$$$

     RDKit          2D

 15 15  0  0  0  0  0  0  0  0999 V2000
    5.2500   -6.4952    0.0000 C   0  0  0  0  0  0  0  0  0  0  0  0
    6.0000   -5.1962    0.0000 C   0  0  0  0  0  0  0  0  0  0  0  0
    5.2500   -3.8971    0.0000 C   0  0  0  0  0  0  0  0  0  0  0  0
    6.0000   -2.5981    0.0000 C   0  0  0  0  0  0  0  0  0  0  0  0
    7.5000   -2.5981    0.0000 C   0  0  0  0  0  0  0  0  0  0  0  0
    5.2500   -1.2990    0.0000 N   0  0  0  0  0  0  0  0  0  0  0  0
    3.7500   -1.2990    0.0000 C   0  0  0  0  0  0  0  0  0  0  0  0
    3.0000   -2.5981    0.0000 O   0  0  0  0  0  0  0  0  0  0  0  0
    3.0000    0.0000    0.0000 C   0  0  0  0  0  0  0  0  0  0  0  0
    1.5000    0.0000    0.0000 C   0  0  0  0  0  0  0  0  0  0  0  0
    0.7500   -1.2990    0.0000 C   0  0  0  0  0  0  0  0  0  0  0  0
   -0.7500   -1.2990    0.0000 S   0  0  0  0  0  0  0  0  0  0  0  0
   -1.5000    0.0000    0.0000 C   0  0  0  0  0  0  0  0  0  0  0  0
   -0.7500    1.2990    0.0000 C   0  0  0  0  0  0  0  0  0  0  0  0
    0.7500    1.2990    0.0000 C   0  0  0  0  0  0  0  0  0  0  0  0
  1  2  1  0
  2  3  1  0
  3  4  1  0
  4  5  1  0
  4  6  1  0
  6  7  1  0
  7  8  2  0
  7  9  1  0
  9 10  1  0
 10 11  2  0
 11 12  1  0
 12 13  1  0
 13 14  1  0
 14 15  2  0
 15 10  1  0
M  END
>  <Title>  (841) 
idABEKgen14

$$$$

     RDKit          2D

  4  3  0  0  0  0  0  0  0  0999 V2000
   -1.2990    0.7500    0.0000 O   0  0  0  0  0  0  0  0  0  0  0  0
    0.0000    0.0000    0.0000 C   0  0  0  0  0  0  0  0  0  0  0  0
    1.2990    0.7500    0.0000 O   0  0  0  0  0  0  0  0  0  0  0  0
   -0.0000   -1.5000    0.0000 F   0  0  0  0  0  0  0  0  0  0  0  0
  1  2  2  0
  2  3  1  0
  2  4  1  0
M  END
>  <Title>  (842) 
idABELgen14

$$$$

     RDKit          2D

 10 10  0  0  0  0  0  0  0  0999 V2000
    3.0000   -2.5981    0.0000 O   0  0  0  0  0  0  0  0  0  0  0  0
    3.7500   -1.2990    0.0000 C   0  0  0  0  0  0  0  0  0  0  0  0
    5.2500   -1.2990    0.0000 O   0  0  0  0  0  0  0  0  0  0  0  0
    3.0000    0.0000    0.0000 N   0  0  0  0  0  0  0  0  0  0  0  0
    1.5000    0.0000    0.0000 C   0  0  0  0  0  0  0  0  0  0  0  0
    0.7500   -1.2990    0.0000 C   0  0  0  0  0  0  0  0  0  0  0  0
   -0.7500   -1.2990    0.0000 C   0  0  0  0  0  0  0  0  0  0  0  0
   -1.5000    0.0000    0.0000 C   0  0  0  0  0  0  0  0  0  0  0  0
   -0.7500    1.2990    0.0000 C   0  0  0  0  0  0  0  0  0  0  0  0
    0.7500    1.2990    0.0000 C   0  0  0  0  0  0  0  0  0  0  0  0
  1  2  2  0
  2  3  1  0
  2  4  1  0
  4  5  1  0
  5  6  2  0
  6  7  1  0
  7  8  2  0
  8  9  1  0
  9 10  2  0
 10  5  1  0
M  END
>  <Title>  (843) 
idABEMgen14

$$$$

     RDKit          2D

 32 35  0  0  0  0  0  0  0  0999 V2000
    3.2286   -0.0000    0.0000 C   0  0  0  0  0  0  0  0  0  0  0  0
    1.7286    0.0000    0.0000 C   0  0  0  0  0  0  0  0  0  0  0  0
    1.0777    1.3515    0.0000 C   0  0  0  0  0  0  0  0  0  0  0  0
   -0.3846    1.6852    0.0000 C   0  0  0  0  0  0  0  0  0  0  0  0
   -1.5574    0.7500    0.0000 C   0  0  0  0  0  0  0  0  0  0  0  0
   -1.5574   -0.7500    0.0000 C   0  0  0  0  0  0  0  0  0  0  0  0
   -0.3846   -1.6852    0.0000 C   0  0  0  0  0  0  0  0  0  0  0  0
   -0.7184   -3.1476    0.0000 C   0  0  0  0  0  0  0  0  0  0  0  0
    0.3812   -4.1679    0.0000 O   0  0  0  0  0  0  0  0  0  0  0  0
   -2.1518   -3.5898    0.0000 N   0  0  0  0  0  0  0  0  0  0  0  0
   -2.4856   -5.0522    0.0000 C   0  0  0  0  0  0  0  0  0  0  0  0
   -1.4987   -6.1818    0.0000 N   0  0  0  0  0  0  0  0  0  0  0  0
   -2.2680   -7.4694    0.0000 N   0  0  0  0  0  0  0  0  0  0  0  0
   -3.7304   -7.1357    0.0000 N   0  0  0  0  0  0  0  0  0  0  0  0
   -3.8649   -5.6417    0.0000 N   0  0  0  0  0  0  0  0  0  0  0  0
   -5.1525   -4.8723    0.0000 C   0  0  0  0  0  0  0  0  0  0  0  0
   -6.5318   -5.4619    0.0000 C   0  0  0  0  0  0  0  0  0  0  0  0
   -7.5187   -4.3323    0.0000 C   0  0  0  0  0  0  0  0  0  0  0  0
   -6.7494   -3.0446    0.0000 C   0  0  0  0  0  0  0  0  0  0  0  0
   -7.3389   -1.6653    0.0000 C   0  0  0  0  0  0  0  0  0  0  0  0
   -8.8282   -1.4862    0.0000 O   0  0  0  0  0  0  0  0  0  0  0  0
   -6.4392   -0.4651    0.0000 N   0  0  0  0  0  0  0  0  0  0  0  0
   -7.0287    0.9142    0.0000 C   0  0  0  0  0  0  0  0  0  0  0  0
   -6.1290    2.1144    0.0000 N   0  0  0  0  0  0  0  0  0  0  0  0
   -6.7185    3.4937    0.0000 N   0  0  0  0  0  0  0  0  0  0  0  0
   -8.2078    3.6728    0.0000 N   0  0  0  0  0  0  0  0  0  0  0  0
   -9.1075    2.4726    0.0000 N   0  0  0  0  0  0  0  0  0  0  0  0
   -8.5180    1.0933    0.0000 N   0  0  0  0  0  0  0  0  0  0  0  0
   -5.2870   -3.3784    0.0000 C   0  0  0  0  0  0  0  0  0  0  0  0
   -4.1574   -2.3915    0.0000 O   0  0  0  0  0  0  0  0  0  0  0  0
    1.0777   -1.3515    0.0000 C   0  0  0  0  0  0  0  0  0  0  0  0
    2.0130   -2.5242    0.0000 O   0  0  0  0  0  0  0  0  0  0  0  0
  1  2  1  0
  2  3  1  0
  3  4  2  0
  4  5  1  0
  5  6  1  0
  6  7  1  0
  7  8  1  0
  8  9  2  0
  8 10  1  0
 10 11  1  0
 11 12  2  0
 12 13  1  0
 13 14  2  0
 14 15  1  0
 15 16  1  0
 16 17  2  0
 17 18  1  0
 18 19  2  0
 19 20  1  0
 20 21  2  0
 20 22  1  0
 22 23  1  0
 23 24  2  0
 24 25  1  0
 25 26  2  0
 26 27  1  0
 27 28  2  0
 19 29  1  0
 29 30  2  0
  7 31  1  0
 31 32  2  0
 31  2  1  0
 15 11  1  0
 29 16  1  0
 28 23  1  0
M  END
>  <Title>  (844) 
idABENgen14

$$$$

     RDKit          2D

  7  6  0  0  0  0  0  0  0  0999 V2000
    0.0000    0.0000    0.0000 C   0  0  0  0  0  0  0  0  0  0  0  0
    1.2990    0.7500    0.0000 N   0  0  0  0  0  0  0  0  0  0  0  0
    2.5981   -0.0000    0.0000 C   0  0  0  0  0  0  0  0  0  0  0  0
    3.8971    0.7500    0.0000 C   0  0  0  0  0  0  0  0  0  0  0  0
    5.1962   -0.0000    0.0000 C   0  0  0  0  0  0  0  0  0  0  0  0
    6.4952    0.7500    0.0000 C   0  0  0  0  0  0  0  0  0  0  0  0
    5.1962   -1.5000    0.0000 N   0  0  0  0  0  0  0  0  0  0  0  0
  1  2  1  0
  2  3  2  3
  3  4  1  0
  4  5  1  0
  5  6  1  0
  5  7  1  0
M  END
>  <Title>  (845) 
idABEOgen14

$$$$

     RDKit          2D

  9  9  0  0  0  0  0  0  0  0999 V2000
    4.8107   -1.2990    0.0000 C   0  0  0  0  0  0  0  0  0  0  0  0
    3.3107   -1.2990    0.0000 C   0  0  0  0  0  0  0  0  0  0  0  0
    2.5607   -2.5981    0.0000 O   0  0  0  0  0  0  0  0  0  0  0  0
    2.5607    0.0000    0.0000 N   0  0  0  0  0  0  0  0  0  0  0  0
    1.0607    0.0000    0.0000 C   0  0  0  0  0  0  0  0  0  0  0  0
   -0.0000   -1.0607    0.0000 C   0  0  0  0  0  0  0  0  0  0  0  0
   -0.0000   -2.5607    0.0000 C   0  0  0  0  0  0  0  0  0  0  0  0
   -1.0607    0.0000    0.0000 C   0  0  0  0  0  0  0  0  0  0  0  0
    0.0000    1.0607    0.0000 C   0  0  0  0  0  0  0  0  0  0  0  0
  1  2  1  0
  2  3  2  0
  2  4  1  0
  4  5  1  0
  5  6  2  0
  6  7  1  0
  6  8  1  0
  8  9  2  0
  9  5  1  0
M  END
>  <Title>  (846) 
idABEPgen14

$$$$

     RDKit          2D

 35 39  0  0  0  0  0  0  0  0999 V2000
   -3.1476   -2.1380    0.0000 C   0  0  0  0  0  0  0  0  0  0  0  0
   -1.6852   -2.4718    0.0000 C   0  0  0  0  0  0  0  0  0  0  0  0
   -1.3515   -3.9342    0.0000 N   0  0  0  0  0  0  0  0  0  0  0  0
   -0.0000   -4.5850    0.0000 C   0  0  0  0  0  0  0  0  0  0  0  0
    1.3515   -3.9342    0.0000 C   0  0  0  0  0  0  0  0  0  0  0  0
    1.6852   -2.4718    0.0000 C   0  0  0  0  0  0  0  0  0  0  0  0
    3.1476   -2.1380    0.0000 C   0  0  0  0  0  0  0  0  0  0  0  0
    3.5898   -0.7046    0.0000 O   0  0  0  0  0  0  0  0  0  0  0  0
    4.1679   -3.2376    0.0000 N   0  0  0  0  0  0  0  0  0  0  0  0
    5.6303   -2.9038    0.0000 C   0  0  0  0  0  0  0  0  0  0  0  0
    6.2198   -1.5245    0.0000 N   0  0  0  0  0  0  0  0  0  0  0  0
    7.7138   -1.6590    0.0000 N   0  0  0  0  0  0  0  0  0  0  0  0
    8.0476   -3.1214    0.0000 N   0  0  0  0  0  0  0  0  0  0  0  0
    6.7599   -3.8907    0.0000 N   0  0  0  0  0  0  0  0  0  0  0  0
    6.6254   -5.3847    0.0000 N   0  0  0  0  0  0  0  0  0  0  0  0
    7.7550   -6.3716    0.0000 C   0  0  0  0  0  0  0  0  0  0  0  0
    7.1655   -7.7509    0.0000 C   0  0  0  0  0  0  0  0  0  0  0  0
    5.6715   -7.6164    0.0000 N   0  0  0  0  0  0  0  0  0  0  0  0
    4.6846   -8.7460    0.0000 C   0  0  0  0  0  0  0  0  0  0  0  0
    5.1694  -10.1655    0.0000 O   0  0  0  0  0  0  0  0  0  0  0  0
    3.2129   -8.4561    0.0000 N   0  0  0  0  0  0  0  0  0  0  0  0
    2.2260   -9.5857    0.0000 C   0  0  0  0  0  0  0  0  0  0  0  0
    0.7543   -9.2959    0.0000 N   0  0  0  0  0  0  0  0  0  0  0  0
   -0.2326  -10.4255    0.0000 N   0  0  0  0  0  0  0  0  0  0  0  0
    0.2522  -11.8450    0.0000 N   0  0  0  0  0  0  0  0  0  0  0  0
    1.7239  -12.1348    0.0000 N   0  0  0  0  0  0  0  0  0  0  0  0
    2.7108  -11.0052    0.0000 N   0  0  0  0  0  0  0  0  0  0  0  0
    5.3378   -6.1540    0.0000 C   0  0  0  0  0  0  0  0  0  0  0  0
    3.9585   -5.5645    0.0000 O   0  0  0  0  0  0  0  0  0  0  0  0
    0.7500   -1.2990    0.0000 C   0  0  0  0  0  0  0  0  0  0  0  0
    1.5000    0.0000    0.0000 C   0  0  0  0  0  0  0  0  0  0  0  0
    0.7500    1.2990    0.0000 C   0  0  0  0  0  0  0  0  0  0  0  0
   -0.7500    1.2990    0.0000 C   0  0  0  0  0  0  0  0  0  0  0  0
   -1.5000    0.0000    0.0000 C   0  0  0  0  0  0  0  0  0  0  0  0
   -0.7500   -1.2990    0.0000 C   0  0  0  0  0  0  0  0  0  0  0  0
  1  2  1  0
  2  3  1  0
  3  4  2  0
  4  5  1  0
  5  6  1  0
  6  7  1  0
  7  8  2  0
  7  9  1  0
  9 10  1  0
 10 11  2  0
 11 12  1  0
 12 13  2  0
 13 14  1  0
 14 15  1  0
 15 16  1  0
 16 17  1  0
 17 18  1  0
 18 19  1  0
 19 20  2  0
 19 21  1  0
 21 22  1  0
 22 23  2  0
 23 24  1  0
 24 25  2  0
 25 26  1  0
 26 27  2  0
 18 28  1  0
 28 29  2  0
  6 30  1  0
 30 31  2  0
 31 32  1  0
 32 33  2  0
 33 34  1  0
 34 35  2  0
 35  2  1  0
 14 10  1  0
 28 15  1  0
 35 30  1  0
 27 22  1  0
M  END
>  <Title>  (847) 
idABEQgen14

$$$$

     RDKit          2D

  6  6  0  0  0  0  0  0  0  0999 V2000
    2.7760    0.0000    0.0000 C   0  0  0  0  0  0  0  0  0  0  0  0
    1.2760    0.0000    0.0000 C   0  0  0  0  0  0  0  0  0  0  0  0
    0.3943    1.2135    0.0000 C   0  0  0  0  0  0  0  0  0  0  0  0
   -1.0323    0.7500    0.0000 N   0  0  0  0  0  0  0  0  0  0  0  0
   -1.0323   -0.7500    0.0000 C   0  0  0  0  0  0  0  0  0  0  0  0
    0.3943   -1.2135    0.0000 N   0  0  0  0  0  0  0  0  0  0  0  0
  1  2  1  0
  2  3  2  0
  3  4  1  0
  4  5  1  0
  5  6  2  0
  6  2  1  0
M  END
>  <Title>  (848) 
idABERgen14

$$$$

     RDKit          2D

 15 15  0  0  0  0  0  0  0  0999 V2000
   10.5000   -5.1962    0.0000 C   0  0  0  0  0  0  0  0  0  0  0  0
    9.7500   -3.8971    0.0000 C   0  0  0  0  0  0  0  0  0  0  0  0
    8.2500   -3.8971    0.0000 C   0  0  0  0  0  0  0  0  0  0  0  0
    7.5000   -2.5981    0.0000 C   0  0  0  0  0  0  0  0  0  0  0  0
    6.0000   -2.5981    0.0000 N   0  0  0  0  0  0  0  0  0  0  0  0
    5.2500   -1.2990    0.0000 C   0  0  0  0  0  0  0  0  0  0  0  0
    6.0000    0.0000    0.0000 O   0  0  0  0  0  0  0  0  0  0  0  0
    3.7500   -1.2990    0.0000 N   0  0  0  0  0  0  0  0  0  0  0  0
    3.0000    0.0000    0.0000 C   0  0  0  0  0  0  0  0  0  0  0  0
    1.5000    0.0000    0.0000 C   0  0  0  0  0  0  0  0  0  0  0  0
    0.7500   -1.2990    0.0000 C   0  0  0  0  0  0  0  0  0  0  0  0
   -0.7500   -1.2990    0.0000 C   0  0  0  0  0  0  0  0  0  0  0  0
   -1.5000    0.0000    0.0000 C   0  0  0  0  0  0  0  0  0  0  0  0
   -0.7500    1.2990    0.0000 C   0  0  0  0  0  0  0  0  0  0  0  0
    0.7500    1.2990    0.0000 C   0  0  0  0  0  0  0  0  0  0  0  0
  1  2  1  0
  2  3  1  0
  3  4  1  0
  4  5  1  0
  5  6  1  0
  6  7  2  0
  6  8  1  0
  8  9  1  0
  9 10  1  0
 10 11  2  0
 11 12  1  0
 12 13  2  0
 13 14  1  0
 14 15  2  0
 15 10  1  0
M  END
>  <Title>  (849) 
idABESgen14

$$$$

     RDKit          2D

 15 15  0  0  0  0  0  0  0  0999 V2000
    8.2500   -3.8971    0.0000 C   0  0  0  0  0  0  0  0  0  0  0  0
    7.5000   -2.5981    0.0000 C   0  0  0  0  0  0  0  0  0  0  0  0
    8.2500   -1.2990    0.0000 C   0  0  0  0  0  0  0  0  0  0  0  0
    6.0000   -2.5981    0.0000 N   0  0  0  0  0  0  0  0  0  0  0  0
    5.2500   -1.2990    0.0000 C   0  0  0  0  0  0  0  0  0  0  0  0
    6.0000    0.0000    0.0000 O   0  0  0  0  0  0  0  0  0  0  0  0
    3.7500   -1.2990    0.0000 C   0  0  0  0  0  0  0  0  0  0  0  0
    3.0000    0.0000    0.0000 C   0  0  0  0  0  0  0  0  0  0  0  0
    1.5000    0.0000    0.0000 C   0  0  0  0  0  0  0  0  0  0  0  0
    0.7500   -1.2990    0.0000 C   0  0  0  0  0  0  0  0  0  0  0  0
   -0.7500   -1.2990    0.0000 C   0  0  0  0  0  0  0  0  0  0  0  0
   -1.5000    0.0000    0.0000 C   0  0  0  0  0  0  0  0  0  0  0  0
   -3.0000    0.0000    0.0000 F   0  0  0  0  0  0  0  0  0  0  0  0
   -0.7500    1.2990    0.0000 C   0  0  0  0  0  0  0  0  0  0  0  0
    0.7500    1.2990    0.0000 C   0  0  0  0  0  0  0  0  0  0  0  0
  1  2  1  0
  2  3  1  0
  2  4  1  0
  4  5  1  0
  5  6  2  0
  5  7  1  0
  7  8  1  0
  8  9  1  0
  9 10  2  0
 10 11  1  0
 11 12  2  0
 12 13  1  0
 12 14  1  0
 14 15  2  0
 15  9  1  0
M  END
>  <Title>  (850) 
idABETgen14

$$$$

     RDKit          2D

 12 12  0  0  0  0  0  0  0  0999 V2000
    9.7500   -1.2990    0.0000 C   0  0  0  0  0  0  0  0  0  0  0  0
    9.0000    0.0000    0.0000 C   0  0  0  0  0  0  0  0  0  0  0  0
    7.5000    0.0000    0.0000 C   0  0  0  0  0  0  0  0  0  0  0  0
    6.0000    0.0000    0.0000 C   0  0  0  0  0  0  0  0  0  0  0  0
    4.5000    0.0000    0.0000 C   0  0  0  0  0  0  0  0  0  0  0  0
    3.0000    0.0000    0.0000 C   0  0  0  0  0  0  0  0  0  0  0  0
    1.5000    0.0000    0.0000 C   0  0  0  0  0  0  0  0  0  0  0  0
    0.7500   -1.2990    0.0000 C   0  0  0  0  0  0  0  0  0  0  0  0
   -0.7500   -1.2990    0.0000 C   0  0  0  0  0  0  0  0  0  0  0  0
   -1.5000    0.0000    0.0000 C   0  0  0  0  0  0  0  0  0  0  0  0
   -0.7500    1.2990    0.0000 C   0  0  0  0  0  0  0  0  0  0  0  0
    0.7500    1.2990    0.0000 C   0  0  0  0  0  0  0  0  0  0  0  0
  1  2  2  0
  2  3  1  0
  3  4  3  0
  4  5  1  0
  5  6  3  0
  6  7  1  0
  7  8  1  0
  8  9  2  0
  9 10  1  0
 10 11  1  0
 11 12  2  0
 12  7  1  0
M  END
>  <Title>  (851) 
idABEUgen14

$$$$

     RDKit          2D

 13 12  0  0  0  0  0  0  0  0999 V2000
    0.0000    0.0000    0.0000 C   0  0  0  0  0  0  0  0  0  0  0  0
    1.2990    0.7500    0.0000 C   0  0  0  0  0  0  0  0  0  0  0  0
    2.5981   -0.0000    0.0000 C   0  0  0  0  0  0  0  0  0  0  0  0
    3.8971    0.7500    0.0000 C   0  0  0  0  0  0  0  0  0  0  0  0
    3.8971    2.2500    0.0000 O   0  0  0  0  0  0  0  0  0  0  0  0
    5.1962   -0.0000    0.0000 N   0  0  0  0  0  0  0  0  0  0  0  0
    6.4952    0.7500    0.0000 N   0  0  0  0  0  0  0  0  0  0  0  0
    7.7942   -0.0000    0.0000 C   0  0  0  0  0  0  0  0  0  0  0  0
    9.0933    0.7500    0.0000 C   0  0  0  0  0  0  0  0  0  0  0  0
    7.7942   -1.5000    0.0000 C   0  0  0  0  0  0  0  0  0  0  0  0
    9.0933   -2.2500    0.0000 C   0  0  0  0  0  0  0  0  0  0  0  0
    9.0933   -3.7500    0.0000 C   0  0  0  0  0  0  0  0  0  0  0  0
   10.3923   -1.5000    0.0000 C   0  0  0  0  0  0  0  0  0  0  0  0
  1  2  1  0
  2  3  1  0
  3  4  1  0
  4  5  2  0
  4  6  1  0
  6  7  1  0
  7  8  1  0
  8  9  1  0
  8 10  1  0
 10 11  1  0
 11 12  1  0
 11 13  1  0
M  END
>  <Title>  (852) 
idABEVgen14

$$$$

     RDKit          2D

 11 11  0  0  0  0  0  0  0  0999 V2000
    6.0000    0.0000    0.0000 O   0  0  0  0  0  0  0  0  0  0  0  0
    5.2500   -1.2990    0.0000 C   0  0  0  0  0  0  0  0  0  0  0  0
    6.0000   -2.5981    0.0000 O   0  0  0  0  0  0  0  0  0  0  0  0
    3.7500   -1.2990    0.0000 N   0  0  0  0  0  0  0  0  0  0  0  0
    3.0000    0.0000    0.0000 C   0  0  0  0  0  0  0  0  0  0  0  0
    1.5000    0.0000    0.0000 C   0  0  0  0  0  0  0  0  0  0  0  0
    0.7500   -1.2990    0.0000 C   0  0  0  0  0  0  0  0  0  0  0  0
   -0.7500   -1.2990    0.0000 C   0  0  0  0  0  0  0  0  0  0  0  0
   -1.5000    0.0000    0.0000 C   0  0  0  0  0  0  0  0  0  0  0  0
   -0.7500    1.2990    0.0000 C   0  0  0  0  0  0  0  0  0  0  0  0
    0.7500    1.2990    0.0000 C   0  0  0  0  0  0  0  0  0  0  0  0
  1  2  2  0
  2  3  1  0
  2  4  1  0
  4  5  1  0
  5  6  1  0
  6  7  2  0
  7  8  1  0
  8  9  2  0
  9 10  1  0
 10 11  2  0
 11  6  1  0
M  END
>  <Title>  (853) 
idABEWgen14

$$$$

     RDKit          2D

  9  9  0  0  0  0  0  0  0  0999 V2000
    7.2760   -0.0000    0.0000 C   0  0  0  0  0  0  0  0  0  0  0  0
    5.7760   -0.0000    0.0000 C   0  0  0  0  0  0  0  0  0  0  0  0
    4.2760   -0.0000    0.0000 C   0  0  0  0  0  0  0  0  0  0  0  0
    2.7760    0.0000    0.0000 C   0  0  0  0  0  0  0  0  0  0  0  0
    1.2760    0.0000    0.0000 C   0  0  0  0  0  0  0  0  0  0  0  0
    0.3943    1.2135    0.0000 C   0  0  0  0  0  0  0  0  0  0  0  0
   -1.0323    0.7500    0.0000 C   0  0  0  0  0  0  0  0  0  0  0  0
   -1.0323   -0.7500    0.0000 C   0  0  0  0  0  0  0  0  0  0  0  0
    0.3943   -1.2135    0.0000 N   0  0  0  0  0  0  0  0  0  0  0  0
  1  2  3  0
  2  3  1  0
  3  4  3  0
  4  5  1  0
  5  6  2  0
  6  7  1  0
  7  8  1  0
  8  9  2  0
  9  5  1  0
M  END
>  <Title>  (854) 
idABEXgen14

$$$$

     RDKit          2D

 37 41  0  0  0  0  0  0  0  0999 V2000
   -5.2500   -3.8971    0.0000 C   0  0  0  0  0  0  0  0  0  0  0  0
   -3.7500   -3.8971    0.0000 C   0  0  0  0  0  0  0  0  0  0  0  0
   -3.0000   -2.5981    0.0000 C   0  0  0  0  0  0  0  0  0  0  0  0
   -3.7500   -1.2990    0.0000 O   0  0  0  0  0  0  0  0  0  0  0  0
   -1.5000   -2.5981    0.0000 N   0  0  0  0  0  0  0  0  0  0  0  0
   -0.7500   -3.8971    0.0000 C   0  0  0  0  0  0  0  0  0  0  0  0
    0.7500   -3.8971    0.0000 C   0  0  0  0  0  0  0  0  0  0  0  0
    1.5000   -2.5981    0.0000 C   0  0  0  0  0  0  0  0  0  0  0  0
    3.0000   -2.5981    0.0000 C   0  0  0  0  0  0  0  0  0  0  0  0
    3.7500   -1.2990    0.0000 O   0  0  0  0  0  0  0  0  0  0  0  0
    3.7500   -3.8971    0.0000 N   0  0  0  0  0  0  0  0  0  0  0  0
    5.2500   -3.8971    0.0000 C   0  0  0  0  0  0  0  0  0  0  0  0
    6.1317   -2.6836    0.0000 N   0  0  0  0  0  0  0  0  0  0  0  0
    7.5583   -3.1471    0.0000 N   0  0  0  0  0  0  0  0  0  0  0  0
    7.5583   -4.6471    0.0000 N   0  0  0  0  0  0  0  0  0  0  0  0
    6.1317   -5.1106    0.0000 N   0  0  0  0  0  0  0  0  0  0  0  0
    5.6682   -6.5372    0.0000 N   0  0  0  0  0  0  0  0  0  0  0  0
    6.5498   -7.7508    0.0000 C   0  0  0  0  0  0  0  0  0  0  0  0
    5.6682   -8.9643    0.0000 C   0  0  0  0  0  0  0  0  0  0  0  0
    4.2416   -8.5008    0.0000 N   0  0  0  0  0  0  0  0  0  0  0  0
    3.0280   -9.3824    0.0000 C   0  0  0  0  0  0  0  0  0  0  0  0
    3.1848  -10.8742    0.0000 O   0  0  0  0  0  0  0  0  0  0  0  0
    1.6577   -8.7723    0.0000 N   0  0  0  0  0  0  0  0  0  0  0  0
    0.4442   -9.6540    0.0000 C   0  0  0  0  0  0  0  0  0  0  0  0
   -0.9261   -9.0439    0.0000 N   0  0  0  0  0  0  0  0  0  0  0  0
   -2.1396   -9.9256    0.0000 N   0  0  0  0  0  0  0  0  0  0  0  0
   -1.9829  -11.4174    0.0000 N   0  0  0  0  0  0  0  0  0  0  0  0
   -0.6125  -12.0275    0.0000 N   0  0  0  0  0  0  0  0  0  0  0  0
    0.6010  -11.1458    0.0000 N   0  0  0  0  0  0  0  0  0  0  0  0
    4.2416   -7.0008    0.0000 C   0  0  0  0  0  0  0  0  0  0  0  0
    3.0280   -6.1191    0.0000 O   0  0  0  0  0  0  0  0  0  0  0  0
    0.7500   -1.2990    0.0000 C   0  0  0  0  0  0  0  0  0  0  0  0
    1.5000    0.0000    0.0000 C   0  0  0  0  0  0  0  0  0  0  0  0
    0.7500    1.2990    0.0000 C   0  0  0  0  0  0  0  0  0  0  0  0
   -0.7500    1.2990    0.0000 C   0  0  0  0  0  0  0  0  0  0  0  0
   -1.5000    0.0000    0.0000 C   0  0  0  0  0  0  0  0  0  0  0  0
   -0.7500   -1.2990    0.0000 C   0  0  0  0  0  0  0  0  0  0  0  0
  1  2  1  0
  2  3  1  0
  3  4  2  0
  3  5  1  0
  5  6  1  0
  6  7  2  0
  7  8  1  0
  8  9  1  0
  9 10  2  0
  9 11  1  0
 11 12  1  0
 12 13  2  0
 13 14  1  0
 14 15  2  0
 15 16  1  0
 16 17  1  0
 17 18  1  0
 18 19  1  0
 19 20  1  0
 20 21  1  0
 21 22  2  0
 21 23  1  0
 23 24  1  0
 24 25  2  0
 25 26  1  0
 26 27  2  0
 27 28  1  0
 28 29  2  0
 20 30  1  0
 30 31  2  0
  8 32  1  0
 32 33  2  0
 33 34  1  0
 34 35  2  0
 35 36  1  0
 36 37  2  0
 37  5  1  0
 16 12  1  0
 30 17  1  0
 37 32  1  0
 29 24  1  0
M  END
>  <Title>  (855) 
idABEYgen14

$$$$

     RDKit          2D

  8  7  0  0  0  0  0  0  0  0999 V2000
    0.0000    0.0000    0.0000 C   0  0  0  0  0  0  0  0  0  0  0  0
    1.2990    0.7500    0.0000 C   0  0  0  0  0  0  0  0  0  0  0  0
    2.5981   -0.0000    0.0000 C   0  0  0  0  0  0  0  0  0  0  0  0
    3.8971    0.7500    0.0000 C   0  0  0  0  0  0  0  0  0  0  0  0
    5.1962   -0.0000    0.0000 C   0  0  0  0  0  0  0  0  0  0  0  0
    6.4952    0.7500    0.0000 C   0  0  0  0  0  0  0  0  0  0  0  0
    7.7942   -0.0000    0.0000 C   0  0  0  0  0  0  0  0  0  0  0  0
    9.0933    0.7500    0.0000 C   0  0  0  0  0  0  0  0  0  0  0  0
  1  2  1  0
  2  3  1  0
  3  4  2  3
  4  5  1  0
  5  6  1  0
  6  7  1  0
  7  8  1  0
M  END
>  <Title>  (856) 
idABEZgen14

$$$$

     RDKit          2D

 13 12  0  0  0  0  0  0  0  0999 V2000
    0.0000    0.0000    0.0000 C   0  0  0  0  0  0  0  0  0  0  0  0
    1.2990    0.7500    0.0000 C   0  0  0  0  0  0  0  0  0  0  0  0
    2.5981   -0.0000    0.0000 C   0  0  0  0  0  0  0  0  0  0  0  0
    3.8971    0.7500    0.0000 C   0  0  0  0  0  0  0  0  0  0  0  0
    5.1962   -0.0000    0.0000 C   0  0  0  0  0  0  0  0  0  0  0  0
    5.1962   -1.5000    0.0000 O   0  0  0  0  0  0  0  0  0  0  0  0
    6.4952    0.7500    0.0000 N   0  0  0  0  0  0  0  0  0  0  0  0
    7.7942   -0.0000    0.0000 C   0  0  0  0  0  0  0  0  0  0  0  0
    9.0933    0.7500    0.0000 C   0  0  0  0  0  0  0  0  0  0  0  0
    7.7942   -1.5000    0.0000 C   0  0  0  0  0  0  0  0  0  0  0  0
    9.0933   -2.2500    0.0000 C   0  0  0  0  0  0  0  0  0  0  0  0
    9.0933   -3.7500    0.0000 C   0  0  0  0  0  0  0  0  0  0  0  0
   10.3923   -1.5000    0.0000 C   0  0  0  0  0  0  0  0  0  0  0  0
  1  2  1  0
  2  3  1  0
  3  4  1  0
  4  5  1  0
  5  6  2  0
  5  7  1  0
  7  8  1  0
  8  9  1  0
  8 10  1  0
 10 11  1  0
 11 12  1  0
 11 13  1  0
M  END
>  <Title>  (857) 
idABFAgen14

$$$$

     RDKit          2D

  8  8  0  0  0  0  0  0  0  0999 V2000
    4.5000    0.0000    0.0000 C   0  0  0  0  0  0  0  0  0  0  0  0
    3.0000    0.0000    0.0000 C   0  0  0  0  0  0  0  0  0  0  0  0
    1.5000    0.0000    0.0000 C   0  0  0  0  0  0  0  0  0  0  0  0
    0.7500   -1.2990    0.0000 C   0  0  0  0  0  0  0  0  0  0  0  0
   -0.7500   -1.2990    0.0000 C   0  0  0  0  0  0  0  0  0  0  0  0
   -1.5000    0.0000    0.0000 C   0  0  0  0  0  0  0  0  0  0  0  0
   -0.7500    1.2990    0.0000 C   0  0  0  0  0  0  0  0  0  0  0  0
    0.7500    1.2990    0.0000 C   0  0  0  0  0  0  0  0  0  0  0  0
  1  2  3  0
  2  3  1  0
  3  4  1  0
  4  5  2  0
  5  6  1  0
  6  7  1  0
  7  8  1  0
  8  3  1  0
M  END
>  <Title>  (858) 
idABFBgen14

$$$$

     RDKit          2D

  9  9  0  0  0  0  0  0  0  0999 V2000
    5.0260   -1.2990    0.0000 C   0  0  0  0  0  0  0  0  0  0  0  0
    3.5260   -1.2990    0.0000 N   0  0  0  0  0  0  0  0  0  0  0  0
    2.7760   -2.5981    0.0000 C   0  0  0  0  0  0  0  0  0  0  0  0
    2.7760    0.0000    0.0000 C   0  0  0  0  0  0  0  0  0  0  0  0
    1.2760    0.0000    0.0000 C   0  0  0  0  0  0  0  0  0  0  0  0
    0.3943    1.2135    0.0000 C   0  0  0  0  0  0  0  0  0  0  0  0
   -1.0323    0.7500    0.0000 C   0  0  0  0  0  0  0  0  0  0  0  0
   -1.0323   -0.7500    0.0000 S   0  0  0  0  0  0  0  0  0  0  0  0
    0.3943   -1.2135    0.0000 C   0  0  0  0  0  0  0  0  0  0  0  0
  1  2  1  0
  2  3  1  0
  2  4  1  0
  4  5  1  0
  5  6  1  0
  6  7  2  0
  7  8  1  0
  8  9  1  0
  9  5  2  0
M  END
>  <Title>  (859) 
idABFCgen14

$$$$

     RDKit          2D

 10 10  0  0  0  0  0  0  0  0999 V2000
    5.2500   -1.2990    0.0000 C   0  0  0  0  0  0  0  0  0  0  0  0
    3.7500   -1.2990    0.0000 C   0  0  0  0  0  0  0  0  0  0  0  0
    3.0000   -2.5981    0.0000 O   0  0  0  0  0  0  0  0  0  0  0  0
    3.0000    0.0000    0.0000 N   0  0  0  0  0  0  0  0  0  0  0  0
    1.5000    0.0000    0.0000 C   0  0  0  0  0  0  0  0  0  0  0  0
    0.7500   -1.2990    0.0000 C   0  0  0  0  0  0  0  0  0  0  0  0
   -0.7500   -1.2990    0.0000 S   0  0  0  0  0  0  0  0  0  0  0  0
   -1.5000    0.0000    0.0000 C   0  0  0  0  0  0  0  0  0  0  0  0
   -0.7500    1.2990    0.0000 C   0  0  0  0  0  0  0  0  0  0  0  0
    0.7500    1.2990    0.0000 N   0  0  0  0  0  0  0  0  0  0  0  0
  1  2  1  0
  2  3  2  0
  2  4  1  0
  4  5  1  0
  5  6  2  0
  6  7  1  0
  7  8  1  0
  8  9  1  0
  9 10  2  0
 10  5  1  0
M  END
>  <Title>  (860) 
idABFDgen14

$$$$

     RDKit          2D

 10 10  0  0  0  0  0  0  0  0999 V2000
    5.7760   -2.5981    0.0000 C   0  0  0  0  0  0  0  0  0  0  0  0
    5.0260   -1.2990    0.0000 N   0  0  0  0  0  0  0  0  0  0  0  0
    3.5260   -1.2990    0.0000 C   0  0  0  0  0  0  0  0  0  0  0  0
    2.7760   -2.5981    0.0000 O   0  0  0  0  0  0  0  0  0  0  0  0
    2.7760    0.0000    0.0000 C   0  0  0  0  0  0  0  0  0  0  0  0
    1.2760    0.0000    0.0000 C   0  0  0  0  0  0  0  0  0  0  0  0
    0.3943    1.2135    0.0000 C   0  0  0  0  0  0  0  0  0  0  0  0
   -1.0323    0.7500    0.0000 C   0  0  0  0  0  0  0  0  0  0  0  0
   -1.0323   -0.7500    0.0000 C   0  0  0  0  0  0  0  0  0  0  0  0
    0.3943   -1.2135    0.0000 C   0  0  0  0  0  0  0  0  0  0  0  0
  1  2  1  0
  2  3  1  0
  3  4  2  0
  3  5  1  0
  5  6  1  0
  6  7  2  0
  7  8  1  0
  8  9  1  0
  9 10  2  0
 10  6  1  0
M  END
>  <Title>  (861) 
idABFEgen14

$$$$

     RDKit          2D

 41 46  0  0  0  0  0  0  0  0999 V2000
   -1.3240   -6.3062    0.0000 C   0  0  0  0  0  0  0  0  0  0  0  0
   -0.7500   -4.9204    0.0000 C   0  0  0  0  0  0  0  0  0  0  0  0
    0.7500   -4.9204    0.0000 C   0  0  0  0  0  0  0  0  0  0  0  0
    1.8107   -3.8597    0.0000 C   0  0  0  0  0  0  0  0  0  0  0  0
    1.8107   -2.3597    0.0000 C   0  0  0  0  0  0  0  0  0  0  0  0
    3.1965   -1.7857    0.0000 C   0  0  0  0  0  0  0  0  0  0  0  0
    3.3923   -0.2985    0.0000 O   0  0  0  0  0  0  0  0  0  0  0  0
    4.3865   -2.6988    0.0000 N   0  0  0  0  0  0  0  0  0  0  0  0
    5.7723   -2.1248    0.0000 C   0  0  0  0  0  0  0  0  0  0  0  0
    6.1225   -0.6662    0.0000 N   0  0  0  0  0  0  0  0  0  0  0  0
    7.6179   -0.5485    0.0000 N   0  0  0  0  0  0  0  0  0  0  0  0
    8.1919   -1.9344    0.0000 N   0  0  0  0  0  0  0  0  0  0  0  0
    7.0513   -2.9085    0.0000 N   0  0  0  0  0  0  0  0  0  0  0  0
    7.1690   -4.4039    0.0000 C   0  0  0  0  0  0  0  0  0  0  0  0
    8.4479   -5.1877    0.0000 C   0  0  0  0  0  0  0  0  0  0  0  0
    8.0978   -6.6462    0.0000 C   0  0  0  0  0  0  0  0  0  0  0  0
    6.6024   -6.7639    0.0000 C   0  0  0  0  0  0  0  0  0  0  0  0
    5.8186   -8.0429    0.0000 O   0  0  0  0  0  0  0  0  0  0  0  0
    4.3192   -8.0036    0.0000 C   0  0  0  0  0  0  0  0  0  0  0  0
    3.6034   -6.6854    0.0000 O   0  0  0  0  0  0  0  0  0  0  0  0
    3.5354   -9.2826    0.0000 N   0  0  0  0  0  0  0  0  0  0  0  0
    2.0359   -9.2433    0.0000 C   0  0  0  0  0  0  0  0  0  0  0  0
    1.3202   -7.9251    0.0000 N   0  0  0  0  0  0  0  0  0  0  0  0
   -0.1793   -7.8858    0.0000 N   0  0  0  0  0  0  0  0  0  0  0  0
   -0.9630   -9.1648    0.0000 N   0  0  0  0  0  0  0  0  0  0  0  0
   -0.2473  -10.4830    0.0000 N   0  0  0  0  0  0  0  0  0  0  0  0
    1.2522  -10.5223    0.0000 N   0  0  0  0  0  0  0  0  0  0  0  0
    6.0284   -5.3781    0.0000 C   0  0  0  0  0  0  0  0  0  0  0  0
    4.5698   -5.0279    0.0000 O   0  0  0  0  0  0  0  0  0  0  0  0
    0.7500   -1.2990    0.0000 C   0  0  0  0  0  0  0  0  0  0  0  0
    1.5000    0.0000    0.0000 C   0  0  0  0  0  0  0  0  0  0  0  0
    0.7500    1.2990    0.0000 C   0  0  0  0  0  0  0  0  0  0  0  0
   -0.7500    1.2990    0.0000 C   0  0  0  0  0  0  0  0  0  0  0  0
   -1.5000    0.0000    0.0000 C   0  0  0  0  0  0  0  0  0  0  0  0
   -0.7500   -1.2990    0.0000 C   0  0  0  0  0  0  0  0  0  0  0  0
   -1.8107   -2.3597    0.0000 C   0  0  0  0  0  0  0  0  0  0  0  0
   -3.1097   -1.6097    0.0000 C   0  0  0  0  0  0  0  0  0  0  0  0
   -4.4087   -2.3597    0.0000 C   0  0  0  0  0  0  0  0  0  0  0  0
   -4.4087   -3.8597    0.0000 C   0  0  0  0  0  0  0  0  0  0  0  0
   -3.1097   -4.6097    0.0000 C   0  0  0  0  0  0  0  0  0  0  0  0
   -1.8107   -3.8597    0.0000 C   0  0  0  0  0  0  0  0  0  0  0  0
  1  2  1  0
  2  3  2  0
  3  4  1  0
  4  5  2  0
  5  6  1  0
  6  7  2  0
  6  8  1  0
  8  9  1  0
  9 10  2  0
 10 11  1  0
 11 12  2  0
 12 13  1  0
 13 14  1  0
 14 15  2  0
 15 16  1  0
 16 17  2  0
 17 18  1  0
 18 19  1  0
 19 20  2  0
 19 21  1  0
 21 22  1  0
 22 23  2  0
 23 24  1  0
 24 25  2  0
 25 26  1  0
 26 27  2  0
 17 28  1  0
 28 29  2  0
  5 30  1  0
 30 31  2  0
 31 32  1  0
 32 33  2  0
 33 34  1  0
 34 35  2  0
 35 36  1  0
 36 37  2  0
 37 38  1  0
 38 39  2  0
 39 40  1  0
 40 41  2  0
 41  2  1  0
 13  9  1  0
 28 14  1  0
 35 30  1  0
 41 36  1  0
 27 22  1  0
M  END
>  <Title>  (862) 
idABFFgen14

$$$$

     RDKit          2D

 44 48  0  0  0  0  0  0  0  0999 V2000
  -10.5000   -2.5981    0.0000 C   0  0  0  0  0  0  0  0  0  0  0  0
   -9.7500   -3.8971    0.0000 C   0  0  0  0  0  0  0  0  0  0  0  0
  -10.5000   -5.1962    0.0000 C   0  0  0  0  0  0  0  0  0  0  0  0
   -8.2500   -3.8971    0.0000 C   0  0  0  0  0  0  0  0  0  0  0  0
   -7.5000   -5.1962    0.0000 C   0  0  0  0  0  0  0  0  0  0  0  0
   -8.2500   -6.4952    0.0000 C   0  0  0  0  0  0  0  0  0  0  0  0
   -6.0000   -5.1962    0.0000 N   0  0  0  0  0  0  0  0  0  0  0  0
   -5.2500   -3.8971    0.0000 C   0  0  0  0  0  0  0  0  0  0  0  0
   -6.0000   -2.5981    0.0000 O   0  0  0  0  0  0  0  0  0  0  0  0
   -3.7500   -3.8971    0.0000 N   0  0  0  0  0  0  0  0  0  0  0  0
   -3.0000   -2.5981    0.0000 C   0  0  0  0  0  0  0  0  0  0  0  0
   -1.5000   -2.5981    0.0000 C   0  0  0  0  0  0  0  0  0  0  0  0
   -0.7500   -3.8971    0.0000 C   0  0  0  0  0  0  0  0  0  0  0  0
    0.7500   -3.8971    0.0000 C   0  0  0  0  0  0  0  0  0  0  0  0
    1.5000   -2.5981    0.0000 C   0  0  0  0  0  0  0  0  0  0  0  0
    3.0000   -2.5981    0.0000 C   0  0  0  0  0  0  0  0  0  0  0  0
    3.7500   -1.2990    0.0000 O   0  0  0  0  0  0  0  0  0  0  0  0
    3.7500   -3.8971    0.0000 N   0  0  0  0  0  0  0  0  0  0  0  0
    5.2500   -3.8971    0.0000 C   0  0  0  0  0  0  0  0  0  0  0  0
    6.1317   -2.6836    0.0000 N   0  0  0  0  0  0  0  0  0  0  0  0
    7.5583   -3.1471    0.0000 N   0  0  0  0  0  0  0  0  0  0  0  0
    7.5583   -4.6471    0.0000 N   0  0  0  0  0  0  0  0  0  0  0  0
    6.1317   -5.1106    0.0000 N   0  0  0  0  0  0  0  0  0  0  0  0
    5.6682   -6.5372    0.0000 N   0  0  0  0  0  0  0  0  0  0  0  0
    6.5498   -7.7508    0.0000 C   0  0  0  0  0  0  0  0  0  0  0  0
    5.6682   -8.9643    0.0000 C   0  0  0  0  0  0  0  0  0  0  0  0
    4.2416   -8.5008    0.0000 N   0  0  0  0  0  0  0  0  0  0  0  0
    3.0280   -9.3824    0.0000 C   0  0  0  0  0  0  0  0  0  0  0  0
    3.1848  -10.8742    0.0000 O   0  0  0  0  0  0  0  0  0  0  0  0
    1.6577   -8.7723    0.0000 N   0  0  0  0  0  0  0  0  0  0  0  0
    0.4442   -9.6540    0.0000 C   0  0  0  0  0  0  0  0  0  0  0  0
   -0.9261   -9.0439    0.0000 N   0  0  0  0  0  0  0  0  0  0  0  0
   -2.1396   -9.9256    0.0000 N   0  0  0  0  0  0  0  0  0  0  0  0
   -1.9829  -11.4174    0.0000 N   0  0  0  0  0  0  0  0  0  0  0  0
   -0.6125  -12.0275    0.0000 N   0  0  0  0  0  0  0  0  0  0  0  0
    0.6010  -11.1458    0.0000 N   0  0  0  0  0  0  0  0  0  0  0  0
    4.2416   -7.0008    0.0000 C   0  0  0  0  0  0  0  0  0  0  0  0
    3.0280   -6.1191    0.0000 O   0  0  0  0  0  0  0  0  0  0  0  0
    0.7500   -1.2990    0.0000 C   0  0  0  0  0  0  0  0  0  0  0  0
    1.5000    0.0000    0.0000 C   0  0  0  0  0  0  0  0  0  0  0  0
    0.7500    1.2990    0.0000 C   0  0  0  0  0  0  0  0  0  0  0  0
   -0.7500    1.2990    0.0000 C   0  0  0  0  0  0  0  0  0  0  0  0
   -1.5000    0.0000    0.0000 C   0  0  0  0  0  0  0  0  0  0  0  0
   -0.7500   -1.2990    0.0000 C   0  0  0  0  0  0  0  0  0  0  0  0
  1  2  1  0
  2  3  1  0
  2  4  1  0
  4  5  1  0
  5  6  1  0
  5  7  1  0
  7  8  1  0
  8  9  2  0
  8 10  1  0
 10 11  1  0
 11 12  1  0
 12 13  2  0
 13 14  1  0
 14 15  2  0
 15 16  1  0
 16 17  2  0
 16 18  1  0
 18 19  1  0
 19 20  2  0
 20 21  1  0
 21 22  2  0
 22 23  1  0
 23 24  1  0
 24 25  1  0
 25 26  1  0
 26 27  1  0
 27 28  1  0
 28 29  2  0
 28 30  1  0
 30 31  1  0
 31 32  2  0
 32 33  1  0
 33 34  2  0
 34 35  1  0
 35 36  2  0
 27 37  1  0
 37 38  2  0
 15 39  1  0
 39 40  2  0
 40 41  1  0
 41 42  2  0
 42 43  1  0
 43 44  2  0
 44 12  1  0
 23 19  1  0
 37 24  1  0
 44 39  1  0
 36 31  1  0
M  END
>  <Title>  (863) 
idABFGgen14

$$$$

     RDKit          2D

  9  9  0  0  0  0  0  0  0  0999 V2000
    5.0260   -1.2990    0.0000 C   0  0  0  0  0  0  0  0  0  0  0  0
    3.5260   -1.2990    0.0000 N   0  0  0  0  0  0  0  0  0  0  0  0
    2.7760   -2.5981    0.0000 C   0  0  0  0  0  0  0  0  0  0  0  0
    2.7760    0.0000    0.0000 C   0  0  0  0  0  0  0  0  0  0  0  0
    1.2760    0.0000    0.0000 C   0  0  0  0  0  0  0  0  0  0  0  0
    0.3943    1.2135    0.0000 C   0  0  0  0  0  0  0  0  0  0  0  0
   -1.0323    0.7500    0.0000 C   0  0  0  0  0  0  0  0  0  0  0  0
   -1.0323   -0.7500    0.0000 C   0  0  0  0  0  0  0  0  0  0  0  0
    0.3943   -1.2135    0.0000 C   0  0  0  0  0  0  0  0  0  0  0  0
  1  2  1  0
  2  3  1  0
  2  4  1  0
  4  5  1  0
  5  6  2  0
  6  7  1  0
  7  8  1  0
  8  9  2  0
  9  5  1  0
M  END
>  <Title>  (864) 
idABFHgen14

$$$$

     RDKit          2D

 67 68  0  0  0  0  0  0  0  0999 V2000
    2.9201    4.0650    0.0000 C   0  0  0  0  0  0  0  0  0  0  0  0
    3.6929    4.2608    0.0000 C   0  0  0  0  0  0  0  0  0  0  0  0
    3.4222    5.7362    0.0000 C   0  0  0  0  0  0  0  0  0  0  0  0
    3.3506    7.2345    0.0000 C   0  0  0  0  0  0  0  0  0  0  0  0
    3.4794    8.7290    0.0000 C   0  0  0  0  0  0  0  0  0  0  0  0
    3.8062   10.1929    0.0000 C   0  0  0  0  0  0  0  0  0  0  0  0
    4.3252   11.6003    0.0000 C   0  0  0  0  0  0  0  0  0  0  0  0
    5.0271   12.9259    0.0000 C   0  0  0  0  0  0  0  0  0  0  0  0
    5.8995   14.1461    0.0000 C   0  0  0  0  0  0  0  0  0  0  0  0
    6.9267   15.2392    0.0000 C   0  0  0  0  0  0  0  0  0  0  0  0
    8.0905   16.1856    0.0000 C   0  0  0  0  0  0  0  0  0  0  0  0
    9.3700   16.9684    0.0000 C   0  0  0  0  0  0  0  0  0  0  0  0
   10.7425   17.5737    0.0000 C   0  0  0  0  0  0  0  0  0  0  0  0
   12.1834   17.9907    0.0000 C   0  0  0  0  0  0  0  0  0  0  0  0
   13.6670   18.2119    0.0000 C   0  0  0  0  0  0  0  0  0  0  0  0
   15.1668   18.2334    0.0000 C   0  0  0  0  0  0  0  0  0  0  0  0
   16.6561   18.0548    0.0000 C   0  0  0  0  0  0  0  0  0  0  0  0
   18.1084   17.6792    0.0000 C   0  0  0  0  0  0  0  0  0  0  0  0
   19.4976   17.1135    0.0000 C   0  0  0  0  0  0  0  0  0  0  0  0
   20.7990   16.3676    0.0000 C   0  0  0  0  0  0  0  0  0  0  0  0
   21.9894   15.4550    0.0000 C   0  0  0  0  0  0  0  0  0  0  0  0
   23.0475   14.3918    0.0000 C   0  0  0  0  0  0  0  0  0  0  0  0
   23.9545   13.1970    0.0000 C   0  0  0  0  0  0  0  0  0  0  0  0
   24.6941   11.8921    0.0000 C   0  0  0  0  0  0  0  0  0  0  0  0
   25.2532   10.5002    0.0000 C   0  0  0  0  0  0  0  0  0  0  0  0
   25.6218    9.0462    0.0000 C   0  0  0  0  0  0  0  0  0  0  0  0
   25.7933    7.5560    0.0000 C   0  0  0  0  0  0  0  0  0  0  0  0
   25.7647    6.0563    0.0000 C   0  0  0  0  0  0  0  0  0  0  0  0
   25.5364    4.5737    0.0000 C   0  0  0  0  0  0  0  0  0  0  0  0
   25.1126    3.1349    0.0000 C   0  0  0  0  0  0  0  0  0  0  0  0
   24.5007    1.7653    0.0000 C   0  0  0  0  0  0  0  0  0  0  0  0
   23.7118    0.4896    0.0000 C   0  0  0  0  0  0  0  0  0  0  0  0
   22.7598   -0.6697    0.0000 C   0  0  0  0  0  0  0  0  0  0  0  0
   21.6619   -1.6917    0.0000 C   0  0  0  0  0  0  0  0  0  0  0  0
   20.4375   -2.5582    0.0000 C   0  0  0  0  0  0  0  0  0  0  0  0
   19.1086   -3.2539    0.0000 C   0  0  0  0  0  0  0  0  0  0  0  0
   17.6987   -3.7661    0.0000 C   0  0  0  0  0  0  0  0  0  0  0  0
   16.2332   -4.0859    0.0000 C   0  0  0  0  0  0  0  0  0  0  0  0
   14.7382   -4.2076    0.0000 C   0  0  0  0  0  0  0  0  0  0  0  0
   13.2402   -4.1288    0.0000 C   0  0  0  0  0  0  0  0  0  0  0  0
   11.7662   -3.8511    0.0000 C   0  0  0  0  0  0  0  0  0  0  0  0
   10.3423   -3.3794    0.0000 C   0  0  0  0  0  0  0  0  0  0  0  0
    8.9939   -2.7222    0.0000 C   0  0  0  0  0  0  0  0  0  0  0  0
    7.7452   -1.8910    0.0000 C   0  0  0  0  0  0  0  0  0  0  0  0
    6.6185   -0.9009    0.0000 C   0  0  0  0  0  0  0  0  0  0  0  0
    5.6337    0.2306    0.0000 C   0  0  0  0  0  0  0  0  0  0  0  0
    4.8086    1.4832    0.0000 C   0  0  0  0  0  0  0  0  0  0  0  0
    4.3321    0.0000    0.0000 C   0  0  0  0  0  0  0  0  0  0  0  0
    4.1397   -1.2769    0.0000 C   0  0  0  0  0  0  0  0  0  0  0  0
    3.5794   -2.4404    0.0000 C   0  0  0  0  0  0  0  0  0  0  0  0
    2.7010   -3.3870    0.0000 C   0  0  0  0  0  0  0  0  0  0  0  0
    1.5827   -4.0327    0.0000 C   0  0  0  0  0  0  0  0  0  0  0  0
    0.3237   -4.3200    0.0000 C   0  0  0  0  0  0  0  0  0  0  0  0
   -0.9640   -4.2235    0.0000 C   0  0  0  0  0  0  0  0  0  0  0  0
   -2.1661   -3.7517    0.0000 C   0  0  0  0  0  0  0  0  0  0  0  0
   -3.1757   -2.9466    0.0000 C   0  0  0  0  0  0  0  0  0  0  0  0
   -3.9031   -1.8796    0.0000 C   0  0  0  0  0  0  0  0  0  0  0  0
   -4.2837   -0.6457    0.0000 C   0  0  0  0  0  0  0  0  0  0  0  0
   -4.2837    0.6457    0.0000 C   0  0  0  0  0  0  0  0  0  0  0  0
   -3.9031    1.8796    0.0000 C   0  0  0  0  0  0  0  0  0  0  0  0
   -3.1757    2.9466    0.0000 C   0  0  0  0  0  0  0  0  0  0  0  0
   -2.1661    3.7517    0.0000 C   0  0  0  0  0  0  0  0  0  0  0  0
   -0.9640    4.2235    0.0000 C   0  0  0  0  0  0  0  0  0  0  0  0
    0.3237    4.3200    0.0000 C   0  0  0  0  0  0  0  0  0  0  0  0
    1.5827    4.0327    0.0000 C   0  0  0  0  0  0  0  0  0  0  0  0
    2.7010    3.3870    0.0000 C   0  0  0  0  0  0  0  0  0  0  0  0
    4.1577    2.8347    0.0000 C   0  0  0  0  0  0  0  0  0  0  0  0
  1  2  1  0
  2  3  1  0
  3  4  1  0
  4  5  1  0
  5  6  1  0
  6  7  1  0
  7  8  1  0
  8  9  1  0
  9 10  1  0
 10 11  1  0
 11 12  1  0
 12 13  1  0
 13 14  1  0
 14 15  1  0
 15 16  1  0
 16 17  1  0
 17 18  1  0
 18 19  1  0
 19 20  1  0
 20 21  1  0
 21 22  1  0
 22 23  1  0
 23 24  1  0
 24 25  1  0
 25 26  1  0
 26 27  1  0
 27 28  1  0
 28 29  1  0
 29 30  1  0
 30 31  1  0
 31 32  1  0
 32 33  1  0
 33 34  1  0
 34 35  1  0
 35 36  1  0
 36 37  1  0
 37 38  1  0
 38 39  1  0
 39 40  1  0
 40 41  1  0
 41 42  1  0
 42 43  1  0
 43 44  1  0
 44 45  1  0
 45 46  1  0
 46 47  1  0
 47 48  1  0
 48 49  1  0
 49 50  1  0
 50 51  2  0
 51 52  1  0
 52 53  2  0
 53 54  1  0
 54 55  2  0
 55 56  1  0
 56 57  2  0
 57 58  1  0
 58 59  2  0
 59 60  1  0
 60 61  2  0
 61 62  1  0
 62 63  2  0
 63 64  1  0
 64 65  2  0
 65 66  1  0
 66 67  2  0
 67  2  1  0
 67 47  1  0
M  END
>  <Title>  (865) 
idABFIgen14

$$$$

     RDKit          2D

  9  8  0  0  0  0  0  0  0  0999 V2000
    0.0000    0.0000    0.0000 C   0  0  0  0  0  0  0  0  0  0  0  0
    1.2990    0.7500    0.0000 N   0  0  0  0  0  0  0  0  0  0  0  0
    2.5981   -0.0000    0.0000 C   0  0  0  0  0  0  0  0  0  0  0  0
    3.8971    0.7500    0.0000 C   0  0  0  0  0  0  0  0  0  0  0  0
    2.5981   -1.5000    0.0000 C   0  0  0  0  0  0  0  0  0  0  0  0
    3.8971   -2.2500    0.0000 C   0  0  0  0  0  0  0  0  0  0  0  0
    3.8971   -3.7500    0.0000 C   0  0  0  0  0  0  0  0  0  0  0  0
    5.1962   -1.5000    0.0000 N   0  0  0  0  0  0  0  0  0  0  0  0
    6.4952   -2.2500    0.0000 C   0  0  0  0  0  0  0  0  0  0  0  0
  1  2  1  0
  2  3  1  0
  3  4  1  0
  3  5  1  0
  5  6  1  0
  6  7  1  0
  6  8  1  0
  8  9  1  0
M  END
>  <Title>  (866) 
idABFJgen14

$$$$

     RDKit          2D

 13 14  0  0  0  0  0  0  0  0999 V2000
   -0.5773   -4.2803    0.0000 C   0  0  0  0  0  0  0  0  0  0  0  0
    0.8899   -3.9684    0.0000 C   0  0  0  0  0  0  0  0  0  0  0  0
    2.0046   -4.9721    0.0000 N   0  0  0  0  0  0  0  0  0  0  0  0
    3.3037   -4.2221    0.0000 N   0  0  0  0  0  0  0  0  0  0  0  0
    2.9918   -2.7549    0.0000 N   0  0  0  0  0  0  0  0  0  0  0  0
    1.5000   -2.5981    0.0000 N   0  0  0  0  0  0  0  0  0  0  0  0
    0.7500   -1.2990    0.0000 C   0  0  0  0  0  0  0  0  0  0  0  0
    1.5000    0.0000    0.0000 C   0  0  0  0  0  0  0  0  0  0  0  0
    0.7500    1.2990    0.0000 C   0  0  0  0  0  0  0  0  0  0  0  0
   -0.7500    1.2990    0.0000 C   0  0  0  0  0  0  0  0  0  0  0  0
   -1.5000    2.5981    0.0000 F   0  0  0  0  0  0  0  0  0  0  0  0
   -1.5000    0.0000    0.0000 C   0  0  0  0  0  0  0  0  0  0  0  0
   -0.7500   -1.2990    0.0000 C   0  0  0  0  0  0  0  0  0  0  0  0
  1  2  1  0
  2  3  2  0
  3  4  1  0
  4  5  2  0
  5  6  1  0
  6  7  1  0
  7  8  2  0
  8  9  1  0
  9 10  2  0
 10 11  1  0
 10 12  1  0
 12 13  2  0
  6  2  1  0
 13  7  1  0
M  END
>  <Title>  (867) 
idABFKgen14

$$$$

     RDKit          2D

  4  3  0  0  0  0  0  0  0  0999 V2000
    0.0000    0.0000    0.0000 C   0  0  0  0  0  0  0  0  0  0  0  0
    1.2990    0.7500    0.0000 C   0  0  0  0  0  0  0  0  0  0  0  0
    2.5981   -0.0000    0.0000 C   0  0  0  0  0  0  0  0  0  0  0  0
    1.2990    2.2500    0.0000 O   0  0  0  0  0  0  0  0  0  0  0  0
  1  2  1  0
  2  3  1  0
  2  4  2  0
M  END
>  <Title>  (868) 
idABFLgen14

$$$$

     RDKit          2D

 33 37  0  0  0  0  0  0  0  0999 V2000
   -2.6401   -3.1891    0.0000 C   0  0  0  0  0  0  0  0  0  0  0  0
   -1.2135   -2.7256    0.0000 C   0  0  0  0  0  0  0  0  0  0  0  0
   -0.0000   -3.6073    0.0000 C   0  0  0  0  0  0  0  0  0  0  0  0
    1.2135   -2.7256    0.0000 C   0  0  0  0  0  0  0  0  0  0  0  0
    2.6401   -3.1891    0.0000 C   0  0  0  0  0  0  0  0  0  0  0  0
    3.7548   -2.1855    0.0000 O   0  0  0  0  0  0  0  0  0  0  0  0
    2.9520   -4.6564    0.0000 N   0  0  0  0  0  0  0  0  0  0  0  0
    4.3786   -5.1199    0.0000 C   0  0  0  0  0  0  0  0  0  0  0  0
    5.5921   -4.2382    0.0000 N   0  0  0  0  0  0  0  0  0  0  0  0
    6.8056   -5.1199    0.0000 N   0  0  0  0  0  0  0  0  0  0  0  0
    6.3421   -6.5465    0.0000 N   0  0  0  0  0  0  0  0  0  0  0  0
    4.8421   -6.5465    0.0000 N   0  0  0  0  0  0  0  0  0  0  0  0
    3.9604   -7.7600    0.0000 N   0  0  0  0  0  0  0  0  0  0  0  0
    4.4239   -9.1866    0.0000 C   0  0  0  0  0  0  0  0  0  0  0  0
    3.2104  -10.0683    0.0000 C   0  0  0  0  0  0  0  0  0  0  0  0
    1.9969   -9.1866    0.0000 N   0  0  0  0  0  0  0  0  0  0  0  0
    0.5703   -9.6501    0.0000 C   0  0  0  0  0  0  0  0  0  0  0  0
    0.2584  -11.1173    0.0000 O   0  0  0  0  0  0  0  0  0  0  0  0
   -0.5444   -8.6464    0.0000 N   0  0  0  0  0  0  0  0  0  0  0  0
   -1.9710   -9.1099    0.0000 C   0  0  0  0  0  0  0  0  0  0  0  0
   -3.0857   -8.1062    0.0000 N   0  0  0  0  0  0  0  0  0  0  0  0
   -4.5123   -8.5698    0.0000 N   0  0  0  0  0  0  0  0  0  0  0  0
   -4.8242  -10.0370    0.0000 N   0  0  0  0  0  0  0  0  0  0  0  0
   -3.7095  -11.0407    0.0000 N   0  0  0  0  0  0  0  0  0  0  0  0
   -2.2829  -10.5772    0.0000 N   0  0  0  0  0  0  0  0  0  0  0  0
    2.4604   -7.7600    0.0000 C   0  0  0  0  0  0  0  0  0  0  0  0
    1.5787   -6.5465    0.0000 O   0  0  0  0  0  0  0  0  0  0  0  0
    0.7500   -1.2990    0.0000 C   0  0  0  0  0  0  0  0  0  0  0  0
    1.5000    0.0000    0.0000 C   0  0  0  0  0  0  0  0  0  0  0  0
    0.7500    1.2990    0.0000 C   0  0  0  0  0  0  0  0  0  0  0  0
   -0.7500    1.2990    0.0000 C   0  0  0  0  0  0  0  0  0  0  0  0
   -1.5000    0.0000    0.0000 C   0  0  0  0  0  0  0  0  0  0  0  0
   -0.7500   -1.2990    0.0000 C   0  0  0  0  0  0  0  0  0  0  0  0
  1  2  1  0
  2  3  2  0
  3  4  1  0
  4  5  1  0
  5  6  2  0
  5  7  1  0
  7  8  1  0
  8  9  2  0
  9 10  1  0
 10 11  2  0
 11 12  1  0
 12 13  1  0
 13 14  1  0
 14 15  1  0
 15 16  1  0
 16 17  1  0
 17 18  2  0
 17 19  1  0
 19 20  1  0
 20 21  2  0
 21 22  1  0
 22 23  2  0
 23 24  1  0
 24 25  2  0
 16 26  1  0
 26 27  2  0
  4 28  1  0
 28 29  2  0
 29 30  1  0
 30 31  2  0
 31 32  1  0
 32 33  2  0
 33  2  1  0
 12  8  1  0
 26 13  1  0
 33 28  1  0
 25 20  1  0
M  END
>  <Title>  (869) 
idABFMgen14

$$$$

     RDKit          2D

 34 38  0  0  0  0  0  0  0  0999 V2000
   -3.0000   -2.5981    0.0000 C   0  0  0  0  0  0  0  0  0  0  0  0
   -1.5000   -2.5981    0.0000 C   0  0  0  0  0  0  0  0  0  0  0  0
   -0.7500   -3.8971    0.0000 N   0  0  0  0  0  0  0  0  0  0  0  0
    0.7500   -3.8971    0.0000 C   0  0  0  0  0  0  0  0  0  0  0  0
    1.5000   -2.5981    0.0000 C   0  0  0  0  0  0  0  0  0  0  0  0
    3.0000   -2.5981    0.0000 C   0  0  0  0  0  0  0  0  0  0  0  0
    3.7500   -1.2990    0.0000 O   0  0  0  0  0  0  0  0  0  0  0  0
    3.7500   -3.8971    0.0000 N   0  0  0  0  0  0  0  0  0  0  0  0
    5.2500   -3.8971    0.0000 C   0  0  0  0  0  0  0  0  0  0  0  0
    6.1317   -2.6836    0.0000 N   0  0  0  0  0  0  0  0  0  0  0  0
    7.5583   -3.1471    0.0000 N   0  0  0  0  0  0  0  0  0  0  0  0
    7.5583   -4.6471    0.0000 N   0  0  0  0  0  0  0  0  0  0  0  0
    6.1317   -5.1106    0.0000 N   0  0  0  0  0  0  0  0  0  0  0  0
    5.6682   -6.5372    0.0000 N   0  0  0  0  0  0  0  0  0  0  0  0
    6.5498   -7.7508    0.0000 C   0  0  0  0  0  0  0  0  0  0  0  0
    5.6682   -8.9643    0.0000 C   0  0  0  0  0  0  0  0  0  0  0  0
    4.2416   -8.5008    0.0000 N   0  0  0  0  0  0  0  0  0  0  0  0
    3.0280   -9.3824    0.0000 C   0  0  0  0  0  0  0  0  0  0  0  0
    3.1848  -10.8742    0.0000 O   0  0  0  0  0  0  0  0  0  0  0  0
    1.6577   -8.7723    0.0000 N   0  0  0  0  0  0  0  0  0  0  0  0
    0.4442   -9.6540    0.0000 C   0  0  0  0  0  0  0  0  0  0  0  0
   -0.9261   -9.0439    0.0000 N   0  0  0  0  0  0  0  0  0  0  0  0
   -2.1396   -9.9256    0.0000 N   0  0  0  0  0  0  0  0  0  0  0  0
   -1.9829  -11.4174    0.0000 N   0  0  0  0  0  0  0  0  0  0  0  0
   -0.6125  -12.0275    0.0000 N   0  0  0  0  0  0  0  0  0  0  0  0
    0.6010  -11.1458    0.0000 N   0  0  0  0  0  0  0  0  0  0  0  0
    4.2416   -7.0008    0.0000 C   0  0  0  0  0  0  0  0  0  0  0  0
    3.0280   -6.1191    0.0000 O   0  0  0  0  0  0  0  0  0  0  0  0
    0.7500   -1.2990    0.0000 C   0  0  0  0  0  0  0  0  0  0  0  0
    1.5000    0.0000    0.0000 C   0  0  0  0  0  0  0  0  0  0  0  0
    0.7500    1.2990    0.0000 C   0  0  0  0  0  0  0  0  0  0  0  0
   -0.7500    1.2990    0.0000 C   0  0  0  0  0  0  0  0  0  0  0  0
   -1.5000    0.0000    0.0000 C   0  0  0  0  0  0  0  0  0  0  0  0
   -0.7500   -1.2990    0.0000 C   0  0  0  0  0  0  0  0  0  0  0  0
  1  2  1  0
  2  3  2  0
  3  4  1  0
  4  5  2  0
  5  6  1  0
  6  7  2  0
  6  8  1  0
  8  9  1  0
  9 10  2  0
 10 11  1  0
 11 12  2  0
 12 13  1  0
 13 14  1  0
 14 15  1  0
 15 16  1  0
 16 17  1  0
 17 18  1  0
 18 19  2  0
 18 20  1  0
 20 21  1  0
 21 22  2  0
 22 23  1  0
 23 24  2  0
 24 25  1  0
 25 26  2  0
 17 27  1  0
 27 28  2  0
  5 29  1  0
 29 30  2  0
 30 31  1  0
 31 32  2  0
 32 33  1  0
 33 34  2  0
 34  2  1  0
 13  9  1  0
 27 14  1  0
 34 29  1  0
 26 21  1  0
M  END
>  <Title>  (870) 
idABFNgen14

$$$$

     RDKit          2D

106108  0  0  0  0  0  0  0  0999 V2000
    7.1456    7.5852    0.0000 C   0  0  0  0  0  0  0  0  0  0  0  0
    8.6378    7.4325    0.0000 C   0  0  0  0  0  0  0  0  0  0  0  0
    8.8635    8.9154    0.0000 C   0  0  0  0  0  0  0  0  0  0  0  0
    9.2334   10.3691    0.0000 C   0  0  0  0  0  0  0  0  0  0  0  0
    9.7441   11.7795    0.0000 C   0  0  0  0  0  0  0  0  0  0  0  0
   10.3906   13.1330    0.0000 C   0  0  0  0  0  0  0  0  0  0  0  0
   11.1666   14.4167    0.0000 C   0  0  0  0  0  0  0  0  0  0  0  0
   12.0647   15.6181    0.0000 C   0  0  0  0  0  0  0  0  0  0  0  0
   13.0762   16.7257    0.0000 C   0  0  0  0  0  0  0  0  0  0  0  0
   14.1914   17.7289    0.0000 C   0  0  0  0  0  0  0  0  0  0  0  0
   15.3996   18.6179    0.0000 C   0  0  0  0  0  0  0  0  0  0  0  0
   16.6891   19.3842    0.0000 C   0  0  0  0  0  0  0  0  0  0  0  0
   18.0475   20.0204    0.0000 C   0  0  0  0  0  0  0  0  0  0  0  0
   19.4617   20.5204    0.0000 C   0  0  0  0  0  0  0  0  0  0  0  0
   20.9181   20.8793    0.0000 C   0  0  0  0  0  0  0  0  0  0  0  0
   22.4027   21.0938    0.0000 C   0  0  0  0  0  0  0  0  0  0  0  0
   23.9012   21.1618    0.0000 C   0  0  0  0  0  0  0  0  0  0  0  0
   25.3991   21.0825    0.0000 C   0  0  0  0  0  0  0  0  0  0  0  0
   26.8820   20.8568    0.0000 C   0  0  0  0  0  0  0  0  0  0  0  0
   28.3356   20.4869    0.0000 C   0  0  0  0  0  0  0  0  0  0  0  0
   29.7460   19.9762    0.0000 C   0  0  0  0  0  0  0  0  0  0  0  0
   31.0996   19.3298    0.0000 C   0  0  0  0  0  0  0  0  0  0  0  0
   32.3833   18.5537    0.0000 C   0  0  0  0  0  0  0  0  0  0  0  0
   33.5847   17.6557    0.0000 C   0  0  0  0  0  0  0  0  0  0  0  0
   34.6923   16.6441    0.0000 C   0  0  0  0  0  0  0  0  0  0  0  0
   35.6954   15.5289    0.0000 C   0  0  0  0  0  0  0  0  0  0  0  0
   36.5844   14.3207    0.0000 C   0  0  0  0  0  0  0  0  0  0  0  0
   37.3507   13.0312    0.0000 C   0  0  0  0  0  0  0  0  0  0  0  0
   37.9869   11.6728    0.0000 C   0  0  0  0  0  0  0  0  0  0  0  0
   38.4869   10.2586    0.0000 C   0  0  0  0  0  0  0  0  0  0  0  0
   38.8459    8.8022    0.0000 C   0  0  0  0  0  0  0  0  0  0  0  0
   39.0604    7.3176    0.0000 C   0  0  0  0  0  0  0  0  0  0  0  0
   39.1283    5.8192    0.0000 C   0  0  0  0  0  0  0  0  0  0  0  0
   39.0491    4.3213    0.0000 C   0  0  0  0  0  0  0  0  0  0  0  0
   38.8234    2.8383    0.0000 C   0  0  0  0  0  0  0  0  0  0  0  0
   38.4534    1.3847    0.0000 C   0  0  0  0  0  0  0  0  0  0  0  0
   37.9428   -0.0257    0.0000 C   0  0  0  0  0  0  0  0  0  0  0  0
   37.2963   -1.3793    0.0000 C   0  0  0  0  0  0  0  0  0  0  0  0
   36.5203   -2.6629    0.0000 C   0  0  0  0  0  0  0  0  0  0  0  0
   35.6222   -3.8644    0.0000 C   0  0  0  0  0  0  0  0  0  0  0  0
   34.6107   -4.9720    0.0000 C   0  0  0  0  0  0  0  0  0  0  0  0
   33.4955   -5.9751    0.0000 C   0  0  0  0  0  0  0  0  0  0  0  0
   32.2873   -6.8641    0.0000 C   0  0  0  0  0  0  0  0  0  0  0  0
   30.9978   -7.6304    0.0000 C   0  0  0  0  0  0  0  0  0  0  0  0
   29.6394   -8.2666    0.0000 C   0  0  0  0  0  0  0  0  0  0  0  0
   28.2252   -8.7666    0.0000 C   0  0  0  0  0  0  0  0  0  0  0  0
   26.7688   -9.1256    0.0000 C   0  0  0  0  0  0  0  0  0  0  0  0
   25.2842   -9.3401    0.0000 C   0  0  0  0  0  0  0  0  0  0  0  0
   23.7857   -9.4080    0.0000 C   0  0  0  0  0  0  0  0  0  0  0  0
   22.2878   -9.3288    0.0000 C   0  0  0  0  0  0  0  0  0  0  0  0
   20.8049   -9.1031    0.0000 C   0  0  0  0  0  0  0  0  0  0  0  0
   19.3512   -8.7331    0.0000 C   0  0  0  0  0  0  0  0  0  0  0  0
   17.9408   -8.2224    0.0000 C   0  0  0  0  0  0  0  0  0  0  0  0
   16.5873   -7.5760    0.0000 C   0  0  0  0  0  0  0  0  0  0  0  0
   15.3036   -6.8000    0.0000 C   0  0  0  0  0  0  0  0  0  0  0  0
   14.1022   -5.9019    0.0000 C   0  0  0  0  0  0  0  0  0  0  0  0
   12.9946   -4.8904    0.0000 C   0  0  0  0  0  0  0  0  0  0  0  0
   11.9914   -3.7751    0.0000 C   0  0  0  0  0  0  0  0  0  0  0  0
   11.1024   -2.5670    0.0000 C   0  0  0  0  0  0  0  0  0  0  0  0
   10.3361   -1.2775    0.0000 C   0  0  0  0  0  0  0  0  0  0  0  0
    9.6999    0.0809    0.0000 C   0  0  0  0  0  0  0  0  0  0  0  0
    9.1999    1.4951    0.0000 C   0  0  0  0  0  0  0  0  0  0  0  0
    8.6206   -0.0000    0.0000 C   0  0  0  0  0  0  0  0  0  0  0  0
    8.5090   -1.3828    0.0000 C   0  0  0  0  0  0  0  0  0  0  0  0
    8.1770   -2.7299    0.0000 C   0  0  0  0  0  0  0  0  0  0  0  0
    7.6332   -4.0062    0.0000 C   0  0  0  0  0  0  0  0  0  0  0  0
    6.8917   -5.1788    0.0000 C   0  0  0  0  0  0  0  0  0  0  0  0
    5.9717   -6.2172    0.0000 C   0  0  0  0  0  0  0  0  0  0  0  0
    4.8971   -7.0946    0.0000 C   0  0  0  0  0  0  0  0  0  0  0  0
    3.6956   -7.7883    0.0000 C   0  0  0  0  0  0  0  0  0  0  0  0
    2.3984   -8.2803    0.0000 C   0  0  0  0  0  0  0  0  0  0  0  0
    1.0391   -8.5578    0.0000 C   0  0  0  0  0  0  0  0  0  0  0  0
   -0.3471   -8.6136    0.0000 C   0  0  0  0  0  0  0  0  0  0  0  0
   -1.7243   -8.4464    0.0000 C   0  0  0  0  0  0  0  0  0  0  0  0
   -3.0569   -8.0604    0.0000 C   0  0  0  0  0  0  0  0  0  0  0  0
   -4.3103   -7.4657    0.0000 C   0  0  0  0  0  0  0  0  0  0  0  0
   -5.4521   -6.6776    0.0000 C   0  0  0  0  0  0  0  0  0  0  0  0
   -6.4526   -5.7165    0.0000 C   0  0  0  0  0  0  0  0  0  0  0  0
   -7.2861   -4.6074    0.0000 C   0  0  0  0  0  0  0  0  0  0  0  0
   -7.9308   -3.3790    0.0000 C   0  0  0  0  0  0  0  0  0  0  0  0
   -8.3701   -2.0631    0.0000 C   0  0  0  0  0  0  0  0  0  0  0  0
   -8.5927   -0.6937    0.0000 C   0  0  0  0  0  0  0  0  0  0  0  0
   -8.5927    0.6937    0.0000 C   0  0  0  0  0  0  0  0  0  0  0  0
   -8.3701    2.0631    0.0000 C   0  0  0  0  0  0  0  0  0  0  0  0
   -7.9308    3.3790    0.0000 C   0  0  0  0  0  0  0  0  0  0  0  0
   -7.2861    4.6074    0.0000 C   0  0  0  0  0  0  0  0  0  0  0  0
   -6.4526    5.7165    0.0000 C   0  0  0  0  0  0  0  0  0  0  0  0
   -5.4521    6.6776    0.0000 C   0  0  0  0  0  0  0  0  0  0  0  0
   -4.3103    7.4657    0.0000 C   0  0  0  0  0  0  0  0  0  0  0  0
   -3.0569    8.0604    0.0000 C   0  0  0  0  0  0  0  0  0  0  0  0
   -1.7243    8.4464    0.0000 C   0  0  0  0  0  0  0  0  0  0  0  0
   -0.3471    8.6136    0.0000 C   0  0  0  0  0  0  0  0  0  0  0  0
    1.0391    8.5578    0.0000 C   0  0  0  0  0  0  0  0  0  0  0  0
    2.3984    8.2803    0.0000 C   0  0  0  0  0  0  0  0  0  0  0  0
    3.6956    7.7883    0.0000 C   0  0  0  0  0  0  0  0  0  0  0  0
    4.8971    7.0946    0.0000 C   0  0  0  0  0  0  0  0  0  0  0  0
    5.9717    6.2172    0.0000 C   0  0  0  0  0  0  0  0  0  0  0  0
    6.8917    5.1788    0.0000 C   0  0  0  0  0  0  0  0  0  0  0  0
    7.6332    4.0062    0.0000 C   0  0  0  0  0  0  0  0  0  0  0  0
    8.8410    2.9515    0.0000 C   0  0  0  0  0  0  0  0  0  0  0  0
    8.6265    4.4361    0.0000 C   0  0  0  0  0  0  0  0  0  0  0  0
    9.9582    3.7457    0.0000 C   0  0  0  0  0  0  0  0  0  0  0  0
   11.2219    4.5538    0.0000 C   0  0  0  0  0  0  0  0  0  0  0  0
   11.1539    6.0523    0.0000 C   0  0  0  0  0  0  0  0  0  0  0  0
    9.8223    6.7427    0.0000 C   0  0  0  0  0  0  0  0  0  0  0  0
    8.5585    5.9346    0.0000 C   0  0  0  0  0  0  0  0  0  0  0  0
  1  2  1  0
  2  3  1  0
  3  4  1  0
  4  5  1  0
  5  6  1  0
  6  7  1  0
  7  8  1  0
  8  9  1  0
  9 10  1  0
 10 11  1  0
 11 12  1  0
 12 13  1  0
 13 14  1  0
 14 15  1  0
 15 16  1  0
 16 17  1  0
 17 18  1  0
 18 19  1  0
 19 20  1  0
 20 21  1  0
 21 22  1  0
 22 23  1  0
 23 24  1  0
 24 25  1  0
 25 26  1  0
 26 27  1  0
 27 28  1  0
 28 29  1  0
 29 30  1  0
 30 31  1  0
 31 32  1  0
 32 33  1  0
 33 34  1  0
 34 35  1  0
 35 36  1  0
 36 37  1  0
 37 38  1  0
 38 39  1  0
 39 40  1  0
 40 41  1  0
 41 42  1  0
 42 43  1  0
 43 44  1  0
 44 45  1  0
 45 46  1  0
 46 47  1  0
 47 48  1  0
 48 49  1  0
 49 50  1  0
 50 51  1  0
 51 52  1  0
 52 53  1  0
 53 54  1  0
 54 55  1  0
 55 56  1  0
 56 57  1  0
 57 58  1  0
 58 59  1  0
 59 60  1  0
 60 61  1  0
 61 62  1  0
 62 63  1  0
 63 64  1  0
 64 65  1  0
 65 66  1  0
 66 67  1  0
 67 68  1  0
 68 69  1  0
 69 70  1  0
 70 71  1  0
 71 72  1  0
 72 73  1  0
 73 74  1  0
 74 75  1  0
 75 76  1  0
 76 77  1  0
 77 78  1  0
 78 79  1  0
 79 80  1  0
 80 81  1  0
 81 82  1  0
 82 83  1  0
 83 84  1  0
 84 85  1  0
 85 86  1  0
 86 87  1  0
 87 88  1  0
 88 89  1  0
 89 90  1  0
 90 91  1  0
 91 92  1  0
 92 93  1  0
 93 94  1  0
 94 95  1  0
 95 96  2  0
 96 97  1  0
 97 98  2  0
 98 99  1  0
 99100  2  0
100101  1  0
101102  2  0
102103  1  0
103104  2  0
104105  1  0
105106  2  0
106  2  1  0
100 62  1  0
106101  1  0
M  END
>  <Title>  (871) 
idABFOgen14

$$$$

     RDKit          2D

 43 47  0  0  0  0  0  0  0  0999 V2000
  -10.5000   -0.0000    0.0000 C   0  0  0  0  0  0  0  0  0  0  0  0
   -9.7500   -1.2990    0.0000 C   0  0  0  0  0  0  0  0  0  0  0  0
  -10.5000   -2.5981    0.0000 C   0  0  0  0  0  0  0  0  0  0  0  0
   -8.2500   -1.2990    0.0000 C   0  0  0  0  0  0  0  0  0  0  0  0
   -7.5000   -2.5981    0.0000 C   0  0  0  0  0  0  0  0  0  0  0  0
   -6.0000   -2.5981    0.0000 C   0  0  0  0  0  0  0  0  0  0  0  0
   -5.2500   -3.8971    0.0000 C   0  0  0  0  0  0  0  0  0  0  0  0
   -6.0000   -5.1962    0.0000 C   0  0  0  0  0  0  0  0  0  0  0  0
   -3.7500   -3.8971    0.0000 N   0  0  0  0  0  0  0  0  0  0  0  0
   -3.0000   -2.5981    0.0000 C   0  0  0  0  0  0  0  0  0  0  0  0
   -1.5000   -2.5981    0.0000 C   0  0  0  0  0  0  0  0  0  0  0  0
   -0.7500   -3.8971    0.0000 C   0  0  0  0  0  0  0  0  0  0  0  0
    0.7500   -3.8971    0.0000 C   0  0  0  0  0  0  0  0  0  0  0  0
    1.5000   -2.5981    0.0000 C   0  0  0  0  0  0  0  0  0  0  0  0
    3.0000   -2.5981    0.0000 C   0  0  0  0  0  0  0  0  0  0  0  0
    3.7500   -1.2990    0.0000 O   0  0  0  0  0  0  0  0  0  0  0  0
    3.7500   -3.8971    0.0000 N   0  0  0  0  0  0  0  0  0  0  0  0
    5.2500   -3.8971    0.0000 C   0  0  0  0  0  0  0  0  0  0  0  0
    6.1317   -2.6836    0.0000 N   0  0  0  0  0  0  0  0  0  0  0  0
    7.5583   -3.1471    0.0000 N   0  0  0  0  0  0  0  0  0  0  0  0
    7.5583   -4.6471    0.0000 N   0  0  0  0  0  0  0  0  0  0  0  0
    6.1317   -5.1106    0.0000 N   0  0  0  0  0  0  0  0  0  0  0  0
    5.6682   -6.5372    0.0000 C   0  0  0  0  0  0  0  0  0  0  0  0
    6.5498   -7.7508    0.0000 C   0  0  0  0  0  0  0  0  0  0  0  0
    5.6682   -8.9643    0.0000 C   0  0  0  0  0  0  0  0  0  0  0  0
    4.2416   -8.5008    0.0000 C   0  0  0  0  0  0  0  0  0  0  0  0
    3.0280   -9.3824    0.0000 C   0  0  0  0  0  0  0  0  0  0  0  0
    3.1848  -10.8742    0.0000 O   0  0  0  0  0  0  0  0  0  0  0  0
    1.6577   -8.7723    0.0000 N   0  0  0  0  0  0  0  0  0  0  0  0
    0.4442   -9.6540    0.0000 C   0  0  0  0  0  0  0  0  0  0  0  0
   -0.9261   -9.0439    0.0000 N   0  0  0  0  0  0  0  0  0  0  0  0
   -2.1396   -9.9256    0.0000 N   0  0  0  0  0  0  0  0  0  0  0  0
   -1.9829  -11.4174    0.0000 N   0  0  0  0  0  0  0  0  0  0  0  0
   -0.6125  -12.0275    0.0000 N   0  0  0  0  0  0  0  0  0  0  0  0
    0.6010  -11.1458    0.0000 N   0  0  0  0  0  0  0  0  0  0  0  0
    4.2416   -7.0008    0.0000 C   0  0  0  0  0  0  0  0  0  0  0  0
    3.0280   -6.1191    0.0000 O   0  0  0  0  0  0  0  0  0  0  0  0
    0.7500   -1.2990    0.0000 C   0  0  0  0  0  0  0  0  0  0  0  0
    1.5000    0.0000    0.0000 C   0  0  0  0  0  0  0  0  0  0  0  0
    0.7500    1.2990    0.0000 C   0  0  0  0  0  0  0  0  0  0  0  0
   -0.7500    1.2990    0.0000 C   0  0  0  0  0  0  0  0  0  0  0  0
   -1.5000    0.0000    0.0000 C   0  0  0  0  0  0  0  0  0  0  0  0
   -0.7500   -1.2990    0.0000 C   0  0  0  0  0  0  0  0  0  0  0  0
  1  2  1  0
  2  3  1  0
  2  4  1  0
  4  5  1  0
  5  6  1  0
  6  7  1  0
  7  8  1  0
  7  9  1  0
  9 10  1  0
 10 11  1  0
 11 12  2  0
 12 13  1  0
 13 14  2  0
 14 15  1  0
 15 16  2  0
 15 17  1  0
 17 18  1  0
 18 19  2  0
 19 20  1  0
 20 21  2  0
 21 22  1  0
 22 23  1  0
 23 24  2  0
 24 25  1  0
 25 26  2  0
 26 27  1  0
 27 28  2  0
 27 29  1  0
 29 30  1  0
 30 31  2  0
 31 32  1  0
 32 33  2  0
 33 34  1  0
 34 35  2  0
 26 36  1  0
 36 37  2  0
 14 38  1  0
 38 39  2  0
 39 40  1  0
 40 41  2  0
 41 42  1  0
 42 43  2  0
 43 11  1  0
 22 18  1  0
 36 23  1  0
 43 38  1  0
 35 30  1  0
M  END
>  <Title>  (872) 
idABFPgen14

$$$$

     RDKit          2D

 25 27  0  0  0  0  0  0  0  0999 V2000
    3.6929    0.0000    0.0000 C   0  0  0  0  0  0  0  0  0  0  0  0
    2.1929    0.0000    0.0000 C   0  0  0  0  0  0  0  0  0  0  0  0
    1.6798    1.4095    0.0000 C   0  0  0  0  0  0  0  0  0  0  0  0
    0.3808    2.1595    0.0000 C   0  0  0  0  0  0  0  0  0  0  0  0
   -1.0964    1.8991    0.0000 C   0  0  0  0  0  0  0  0  0  0  0  0
   -1.8464    3.1981    0.0000 C   0  0  0  0  0  0  0  0  0  0  0  0
   -3.3464    3.1981    0.0000 O   0  0  0  0  0  0  0  0  0  0  0  0
   -1.0964    4.4971    0.0000 N   0  0  0  0  0  0  0  0  0  0  0  0
   -1.8464    5.7962    0.0000 C   0  0  0  0  0  0  0  0  0  0  0  0
   -3.3382    5.9530    0.0000 N   0  0  0  0  0  0  0  0  0  0  0  0
   -3.6501    7.4202    0.0000 N   0  0  0  0  0  0  0  0  0  0  0  0
   -2.3510    8.1702    0.0000 N   0  0  0  0  0  0  0  0  0  0  0  0
   -1.2363    7.1665    0.0000 N   0  0  0  0  0  0  0  0  0  0  0  0
    0.2309    7.4784    0.0000 C   0  0  0  0  0  0  0  0  0  0  0  0
    1.2346    6.3636    0.0000 C   0  0  0  0  0  0  0  0  0  0  0  0
    2.7018    6.6755    0.0000 C   0  0  0  0  0  0  0  0  0  0  0  0
    3.1653    8.1021    0.0000 C   0  0  0  0  0  0  0  0  0  0  0  0
    4.6326    8.4140    0.0000 O   0  0  0  0  0  0  0  0  0  0  0  0
    2.1616    9.2168    0.0000 C   0  0  0  0  0  0  0  0  0  0  0  0
    0.6944    8.9050    0.0000 C   0  0  0  0  0  0  0  0  0  0  0  0
   -2.0606    0.7500    0.0000 C   0  0  0  0  0  0  0  0  0  0  0  0
   -2.0606   -0.7500    0.0000 C   0  0  0  0  0  0  0  0  0  0  0  0
   -1.0964   -1.8991    0.0000 C   0  0  0  0  0  0  0  0  0  0  0  0
    0.3808   -2.1595    0.0000 C   0  0  0  0  0  0  0  0  0  0  0  0
    1.6798   -1.4095    0.0000 C   0  0  0  0  0  0  0  0  0  0  0  0
  1  2  1  0
  2  3  1  0
  3  4  2  0
  4  5  1  0
  5  6  1  0
  6  7  2  0
  6  8  1  0
  8  9  1  0
  9 10  2  0
 10 11  1  0
 11 12  2  0
 12 13  1  0
 13 14  1  0
 14 15  2  0
 15 16  1  0
 16 17  2  0
 17 18  1  0
 17 19  1  0
 19 20  2  0
  5 21  1  0
 21 22  1  0
 22 23  1  0
 23 24  1  0
 24 25  1  0
 25  2  1  0
 13  9  1  0
 20 14  1  0
M  END
>  <Title>  (873) 
idABFQgen14

$$$$

     RDKit          2D

 36 40  0  0  0  0  0  0  0  0999 V2000
   -4.6100   -1.8042    0.0000 C   0  0  0  0  0  0  0  0  0  0  0  0
   -3.1476   -2.1380    0.0000 C   0  0  0  0  0  0  0  0  0  0  0  0
   -1.6852   -2.4718    0.0000 C   0  0  0  0  0  0  0  0  0  0  0  0
   -1.3515   -3.9342    0.0000 C   0  0  0  0  0  0  0  0  0  0  0  0
   -0.0000   -4.5850    0.0000 C   0  0  0  0  0  0  0  0  0  0  0  0
    1.3515   -3.9342    0.0000 C   0  0  0  0  0  0  0  0  0  0  0  0
    1.6852   -2.4718    0.0000 C   0  0  0  0  0  0  0  0  0  0  0  0
    3.1476   -2.1380    0.0000 C   0  0  0  0  0  0  0  0  0  0  0  0
    3.5898   -0.7046    0.0000 O   0  0  0  0  0  0  0  0  0  0  0  0
    4.1679   -3.2376    0.0000 N   0  0  0  0  0  0  0  0  0  0  0  0
    5.6303   -2.9038    0.0000 C   0  0  0  0  0  0  0  0  0  0  0  0
    6.2198   -1.5245    0.0000 N   0  0  0  0  0  0  0  0  0  0  0  0
    7.7138   -1.6590    0.0000 N   0  0  0  0  0  0  0  0  0  0  0  0
    8.0476   -3.1214    0.0000 N   0  0  0  0  0  0  0  0  0  0  0  0
    6.7599   -3.8907    0.0000 N   0  0  0  0  0  0  0  0  0  0  0  0
    6.6254   -5.3847    0.0000 N   0  0  0  0  0  0  0  0  0  0  0  0
    7.7550   -6.3716    0.0000 C   0  0  0  0  0  0  0  0  0  0  0  0
    7.1655   -7.7509    0.0000 C   0  0  0  0  0  0  0  0  0  0  0  0
    5.6715   -7.6164    0.0000 N   0  0  0  0  0  0  0  0  0  0  0  0
    4.6846   -8.7460    0.0000 C   0  0  0  0  0  0  0  0  0  0  0  0
    5.1694  -10.1655    0.0000 O   0  0  0  0  0  0  0  0  0  0  0  0
    3.2129   -8.4561    0.0000 N   0  0  0  0  0  0  0  0  0  0  0  0
    2.2260   -9.5857    0.0000 C   0  0  0  0  0  0  0  0  0  0  0  0
    0.7543   -9.2959    0.0000 N   0  0  0  0  0  0  0  0  0  0  0  0
   -0.2326  -10.4255    0.0000 N   0  0  0  0  0  0  0  0  0  0  0  0
    0.2522  -11.8450    0.0000 N   0  0  0  0  0  0  0  0  0  0  0  0
    1.7239  -12.1348    0.0000 N   0  0  0  0  0  0  0  0  0  0  0  0
    2.7108  -11.0052    0.0000 N   0  0  0  0  0  0  0  0  0  0  0  0
    5.3378   -6.1540    0.0000 C   0  0  0  0  0  0  0  0  0  0  0  0
    3.9585   -5.5645    0.0000 O   0  0  0  0  0  0  0  0  0  0  0  0
    0.7500   -1.2990    0.0000 C   0  0  0  0  0  0  0  0  0  0  0  0
    1.5000    0.0000    0.0000 C   0  0  0  0  0  0  0  0  0  0  0  0
    0.7500    1.2990    0.0000 C   0  0  0  0  0  0  0  0  0  0  0  0
   -0.7500    1.2990    0.0000 C   0  0  0  0  0  0  0  0  0  0  0  0
   -1.5000    0.0000    0.0000 C   0  0  0  0  0  0  0  0  0  0  0  0
   -0.7500   -1.2990    0.0000 C   0  0  0  0  0  0  0  0  0  0  0  0
  1  2  3  0
  2  3  1  0
  3  4  1  0
  4  5  2  0
  5  6  1  0
  6  7  1  0
  7  8  1  0
  8  9  2  0
  8 10  1  0
 10 11  1  0
 11 12  2  0
 12 13  1  0
 13 14  2  0
 14 15  1  0
 15 16  1  0
 16 17  1  0
 17 18  1  0
 18 19  1  0
 19 20  1  0
 20 21  2  0
 20 22  1  0
 22 23  1  0
 23 24  2  0
 24 25  1  0
 25 26  2  0
 26 27  1  0
 27 28  2  0
 19 29  1  0
 29 30  2  0
  7 31  1  0
 31 32  2  0
 32 33  1  0
 33 34  2  0
 34 35  1  0
 35 36  2  0
 36  3  1  0
 15 11  1  0
 29 16  1  0
 36 31  1  0
 28 23  1  0
M  END
>  <Title>  (874) 
idABFRgen14

$$$$

     RDKit          2D

 39 43  0  0  0  0  0  0  0  0999 V2000
   -5.2500   -3.8971    0.0000 C   0  0  0  0  0  0  0  0  0  0  0  0
   -3.7500   -3.8971    0.0000 C   0  0  0  0  0  0  0  0  0  0  0  0
   -3.0000   -5.1962    0.0000 C   0  0  0  0  0  0  0  0  0  0  0  0
   -3.0000   -2.5981    0.0000 C   0  0  0  0  0  0  0  0  0  0  0  0
   -1.5000   -2.5981    0.0000 C   0  0  0  0  0  0  0  0  0  0  0  0
   -0.7500   -3.8971    0.0000 C   0  0  0  0  0  0  0  0  0  0  0  0
    0.7500   -3.8971    0.0000 C   0  0  0  0  0  0  0  0  0  0  0  0
    1.5000   -2.5981    0.0000 C   0  0  0  0  0  0  0  0  0  0  0  0
    3.0000   -2.5981    0.0000 C   0  0  0  0  0  0  0  0  0  0  0  0
    3.7500   -1.2990    0.0000 O   0  0  0  0  0  0  0  0  0  0  0  0
    3.7500   -3.8971    0.0000 N   0  0  0  0  0  0  0  0  0  0  0  0
    5.2500   -3.8971    0.0000 C   0  0  0  0  0  0  0  0  0  0  0  0
    6.1317   -2.6836    0.0000 N   0  0  0  0  0  0  0  0  0  0  0  0
    7.5583   -3.1471    0.0000 N   0  0  0  0  0  0  0  0  0  0  0  0
    7.5583   -4.6471    0.0000 N   0  0  0  0  0  0  0  0  0  0  0  0
    6.1317   -5.1106    0.0000 N   0  0  0  0  0  0  0  0  0  0  0  0
    5.6682   -6.5372    0.0000 N   0  0  0  0  0  0  0  0  0  0  0  0
    6.5498   -7.7508    0.0000 C   0  0  0  0  0  0  0  0  0  0  0  0
    5.6682   -8.9643    0.0000 C   0  0  0  0  0  0  0  0  0  0  0  0
    4.2416   -8.5008    0.0000 N   0  0  0  0  0  0  0  0  0  0  0  0
    3.0280   -9.3824    0.0000 C   0  0  0  0  0  0  0  0  0  0  0  0
    3.1848  -10.8742    0.0000 O   0  0  0  0  0  0  0  0  0  0  0  0
    1.6577   -8.7723    0.0000 N   0  0  0  0  0  0  0  0  0  0  0  0
    0.4442   -9.6540    0.0000 C   0  0  0  0  0  0  0  0  0  0  0  0
   -0.9261   -9.0439    0.0000 N   0  0  0  0  0  0  0  0  0  0  0  0
   -2.1396   -9.9256    0.0000 N   0  0  0  0  0  0  0  0  0  0  0  0
   -1.9829  -11.4174    0.0000 N   0  0  0  0  0  0  0  0  0  0  0  0
   -0.6125  -12.0275    0.0000 N   0  0  0  0  0  0  0  0  0  0  0  0
    0.6010  -11.1458    0.0000 N   0  0  0  0  0  0  0  0  0  0  0  0
    4.2416   -7.0008    0.0000 C   0  0  0  0  0  0  0  0  0  0  0  0
    3.0280   -6.1191    0.0000 O   0  0  0  0  0  0  0  0  0  0  0  0
    0.7500   -1.2990    0.0000 C   0  0  0  0  0  0  0  0  0  0  0  0
    1.5000    0.0000    0.0000 C   0  0  0  0  0  0  0  0  0  0  0  0
    0.7500    1.2990    0.0000 C   0  0  0  0  0  0  0  0  0  0  0  0
   -0.7500    1.2990    0.0000 C   0  0  0  0  0  0  0  0  0  0  0  0
   -1.5000    2.5981    0.0000 C   0  0  0  0  0  0  0  0  0  0  0  0
   -2.2500    3.8971    0.0000 N   0  0  0  0  0  0  0  0  0  0  0  0
   -1.5000    0.0000    0.0000 C   0  0  0  0  0  0  0  0  0  0  0  0
   -0.7500   -1.2990    0.0000 C   0  0  0  0  0  0  0  0  0  0  0  0
  1  2  1  0
  2  3  1  0
  2  4  1  0
  4  5  1  0
  5  6  2  0
  6  7  1  0
  7  8  2  0
  8  9  1  0
  9 10  2  0
  9 11  1  0
 11 12  1  0
 12 13  2  0
 13 14  1  0
 14 15  2  0
 15 16  1  0
 16 17  1  0
 17 18  1  0
 18 19  1  0
 19 20  1  0
 20 21  1  0
 21 22  2  0
 21 23  1  0
 23 24  1  0
 24 25  2  0
 25 26  1  0
 26 27  2  0
 27 28  1  0
 28 29  2  0
 20 30  1  0
 30 31  2  0
  8 32  1  0
 32 33  2  0
 33 34  1  0
 34 35  2  0
 35 36  1  0
 36 37  3  0
 35 38  1  0
 38 39  2  0
 39  5  1  0
 16 12  1  0
 30 17  1  0
 39 32  1  0
 29 24  1  0
M  END
>  <Title>  (875) 
idABFSgen14

$$$$

     RDKit          2D

 17 17  0  0  0  0  0  0  0  0999 V2000
   10.5000    0.0000    0.0000 C   0  0  0  0  0  0  0  0  0  0  0  0
    9.7500   -1.2990    0.0000 C   0  0  0  0  0  0  0  0  0  0  0  0
   10.5000   -2.5981    0.0000 C   0  0  0  0  0  0  0  0  0  0  0  0
    8.2500   -1.2990    0.0000 C   0  0  0  0  0  0  0  0  0  0  0  0
    7.5000   -2.5981    0.0000 C   0  0  0  0  0  0  0  0  0  0  0  0
    8.2500   -3.8971    0.0000 C   0  0  0  0  0  0  0  0  0  0  0  0
    6.0000   -2.5981    0.0000 N   0  0  0  0  0  0  0  0  0  0  0  0
    5.2500   -1.2990    0.0000 C   0  0  0  0  0  0  0  0  0  0  0  0
    6.0000    0.0000    0.0000 O   0  0  0  0  0  0  0  0  0  0  0  0
    3.7500   -1.2990    0.0000 N   0  0  0  0  0  0  0  0  0  0  0  0
    3.0000    0.0000    0.0000 C   0  0  0  0  0  0  0  0  0  0  0  0
    1.5000    0.0000    0.0000 C   0  0  0  0  0  0  0  0  0  0  0  0
    0.7500   -1.2990    0.0000 C   0  0  0  0  0  0  0  0  0  0  0  0
   -0.7500   -1.2990    0.0000 C   0  0  0  0  0  0  0  0  0  0  0  0
   -1.5000    0.0000    0.0000 C   0  0  0  0  0  0  0  0  0  0  0  0
   -0.7500    1.2990    0.0000 C   0  0  0  0  0  0  0  0  0  0  0  0
    0.7500    1.2990    0.0000 C   0  0  0  0  0  0  0  0  0  0  0  0
  1  2  1  0
  2  3  1  0
  2  4  1  0
  4  5  1  0
  5  6  1  0
  5  7  1  0
  7  8  1  0
  8  9  2  0
  8 10  1  0
 10 11  1  0
 11 12  1  0
 12 13  2  0
 13 14  1  0
 14 15  1  0
 15 16  1  0
 16 17  1  0
 17 12  1  0
M  END
>  <Title>  (876) 
idABFTgen14

$$$$

     RDKit          2D

 14 14  0  0  0  0  0  0  0  0999 V2000
    9.7500   -3.8971    0.0000 C   0  0  0  0  0  0  0  0  0  0  0  0
    8.2500   -3.8971    0.0000 C   0  0  0  0  0  0  0  0  0  0  0  0
    7.5000   -2.5981    0.0000 C   0  0  0  0  0  0  0  0  0  0  0  0
    6.0000   -2.5981    0.0000 N   0  0  0  0  0  0  0  0  0  0  0  0
    5.2500   -1.2990    0.0000 C   0  0  0  0  0  0  0  0  0  0  0  0
    6.0000    0.0000    0.0000 O   0  0  0  0  0  0  0  0  0  0  0  0
    3.7500   -1.2990    0.0000 C   0  0  0  0  0  0  0  0  0  0  0  0
    3.0000    0.0000    0.0000 C   0  0  0  0  0  0  0  0  0  0  0  0
    1.5000    0.0000    0.0000 C   0  0  0  0  0  0  0  0  0  0  0  0
    0.7500   -1.2990    0.0000 C   0  0  0  0  0  0  0  0  0  0  0  0
   -0.7500   -1.2990    0.0000 C   0  0  0  0  0  0  0  0  0  0  0  0
   -1.5000    0.0000    0.0000 C   0  0  0  0  0  0  0  0  0  0  0  0
   -0.7500    1.2990    0.0000 N   0  0  0  0  0  0  0  0  0  0  0  0
    0.7500    1.2990    0.0000 C   0  0  0  0  0  0  0  0  0  0  0  0
  1  2  1  0
  2  3  2  3
  3  4  1  0
  4  5  1  0
  5  6  2  0
  5  7  1  0
  7  8  1  0
  8  9  1  0
  9 10  2  0
 10 11  1  0
 11 12  2  0
 12 13  1  0
 13 14  2  0
 14  9  1  0
M  END
>  <Title>  (877) 
idABFUgen14

$$$$

     RDKit          2D

110111  0  0  0  0  0  0  0  0999 V2000
   -2.1488   -1.0903    0.0000 C   0  0  0  0  0  0  0  0  0  0  0  0
   -2.4838    0.3718    0.0000 C   0  0  0  0  0  0  0  0  0  0  0  0
   -3.9552    0.0803    0.0000 C   0  0  0  0  0  0  0  0  0  0  0  0
   -5.4413   -0.1236    0.0000 C   0  0  0  0  0  0  0  0  0  0  0  0
   -6.9368   -0.2391    0.0000 C   0  0  0  0  0  0  0  0  0  0  0  0
   -8.4366   -0.2658    0.0000 C   0  0  0  0  0  0  0  0  0  0  0  0
   -9.9353   -0.2035    0.0000 C   0  0  0  0  0  0  0  0  0  0  0  0
  -11.4277   -0.0526    0.0000 C   0  0  0  0  0  0  0  0  0  0  0  0
  -12.9085    0.1864    0.0000 C   0  0  0  0  0  0  0  0  0  0  0  0
  -14.3726    0.5127    0.0000 C   0  0  0  0  0  0  0  0  0  0  0  0
  -15.8148    0.9253    0.0000 C   0  0  0  0  0  0  0  0  0  0  0  0
  -17.2300    1.4225    0.0000 C   0  0  0  0  0  0  0  0  0  0  0  0
  -18.6132    2.0027    0.0000 C   0  0  0  0  0  0  0  0  0  0  0  0
  -19.9597    2.6638    0.0000 C   0  0  0  0  0  0  0  0  0  0  0  0
  -21.2646    3.4035    0.0000 C   0  0  0  0  0  0  0  0  0  0  0  0
  -22.5234    4.2192    0.0000 C   0  0  0  0  0  0  0  0  0  0  0  0
  -23.7317    5.1080    0.0000 C   0  0  0  0  0  0  0  0  0  0  0  0
  -24.8852    6.0669    0.0000 C   0  0  0  0  0  0  0  0  0  0  0  0
  -25.9799    7.0924    0.0000 C   0  0  0  0  0  0  0  0  0  0  0  0
  -27.0119    8.1810    0.0000 C   0  0  0  0  0  0  0  0  0  0  0  0
  -27.9776    9.3288    0.0000 C   0  0  0  0  0  0  0  0  0  0  0  0
  -28.8736   10.5318    0.0000 C   0  0  0  0  0  0  0  0  0  0  0  0
  -29.6967   11.7857    0.0000 C   0  0  0  0  0  0  0  0  0  0  0  0
  -30.4441   13.0863    0.0000 C   0  0  0  0  0  0  0  0  0  0  0  0
  -31.1132   14.4288    0.0000 C   0  0  0  0  0  0  0  0  0  0  0  0
  -31.7016   15.8086    0.0000 C   0  0  0  0  0  0  0  0  0  0  0  0
  -32.2072   17.2208    0.0000 C   0  0  0  0  0  0  0  0  0  0  0  0
  -32.6282   18.6605    0.0000 C   0  0  0  0  0  0  0  0  0  0  0  0
  -32.9633   20.1226    0.0000 C   0  0  0  0  0  0  0  0  0  0  0  0
  -33.2111   21.6020    0.0000 C   0  0  0  0  0  0  0  0  0  0  0  0
  -33.3708   23.0934    0.0000 C   0  0  0  0  0  0  0  0  0  0  0  0
  -33.4419   24.5918    0.0000 C   0  0  0  0  0  0  0  0  0  0  0  0
  -33.4241   26.0917    0.0000 C   0  0  0  0  0  0  0  0  0  0  0  0
  -33.3175   27.5879    0.0000 C   0  0  0  0  0  0  0  0  0  0  0  0
  -33.1225   29.0751    0.0000 C   0  0  0  0  0  0  0  0  0  0  0  0
  -32.8397   30.5482    0.0000 C   0  0  0  0  0  0  0  0  0  0  0  0
  -32.4701   32.0020    0.0000 C   0  0  0  0  0  0  0  0  0  0  0  0
  -32.0150   33.4313    0.0000 C   0  0  0  0  0  0  0  0  0  0  0  0
  -31.4761   34.8311    0.0000 C   0  0  0  0  0  0  0  0  0  0  0  0
  -30.8552   36.1966    0.0000 C   0  0  0  0  0  0  0  0  0  0  0  0
  -30.1544   37.5229    0.0000 C   0  0  0  0  0  0  0  0  0  0  0  0
  -29.3764   38.8053    0.0000 C   0  0  0  0  0  0  0  0  0  0  0  0
  -28.5237   40.0394    0.0000 C   0  0  0  0  0  0  0  0  0  0  0  0
  -27.5995   41.2208    0.0000 C   0  0  0  0  0  0  0  0  0  0  0  0
  -26.6068   42.3454    0.0000 C   0  0  0  0  0  0  0  0  0  0  0  0
  -25.5493   43.4092    0.0000 C   0  0  0  0  0  0  0  0  0  0  0  0
  -24.4306   44.4084    0.0000 C   0  0  0  0  0  0  0  0  0  0  0  0
  -23.2547   45.3397    0.0000 C   0  0  0  0  0  0  0  0  0  0  0  0
  -22.0257   46.1997    0.0000 C   0  0  0  0  0  0  0  0  0  0  0  0
  -20.7479   46.9853    0.0000 C   0  0  0  0  0  0  0  0  0  0  0  0
  -19.4258   47.6939    0.0000 C   0  0  0  0  0  0  0  0  0  0  0  0
  -18.0641   48.3229    0.0000 C   0  0  0  0  0  0  0  0  0  0  0  0
  -16.6675   48.8701    0.0000 C   0  0  0  0  0  0  0  0  0  0  0  0
  -15.2409   49.3336    0.0000 C   0  0  0  0  0  0  0  0  0  0  0  0
  -13.7893   49.7118    0.0000 C   0  0  0  0  0  0  0  0  0  0  0  0
  -12.3179   50.0034    0.0000 C   0  0  0  0  0  0  0  0  0  0  0  0
  -10.8319   50.2072    0.0000 C   0  0  0  0  0  0  0  0  0  0  0  0
   -9.3363   50.3227    0.0000 C   0  0  0  0  0  0  0  0  0  0  0  0
   -7.8365   50.3494    0.0000 C   0  0  0  0  0  0  0  0  0  0  0  0
   -6.3378   50.2871    0.0000 C   0  0  0  0  0  0  0  0  0  0  0  0
   -4.8454   50.1363    0.0000 C   0  0  0  0  0  0  0  0  0  0  0  0
   -3.3646   49.8972    0.0000 C   0  0  0  0  0  0  0  0  0  0  0  0
   -1.9005   49.5709    0.0000 C   0  0  0  0  0  0  0  0  0  0  0  0
   -0.4584   49.1584    0.0000 C   0  0  0  0  0  0  0  0  0  0  0  0
    0.9568   48.6611    0.0000 C   0  0  0  0  0  0  0  0  0  0  0  0
    2.3401   48.0810    0.0000 C   0  0  0  0  0  0  0  0  0  0  0  0
    3.6865   47.4199    0.0000 C   0  0  0  0  0  0  0  0  0  0  0  0
    4.9915   46.6801    0.0000 C   0  0  0  0  0  0  0  0  0  0  0  0
    6.2503   45.8644    0.0000 C   0  0  0  0  0  0  0  0  0  0  0  0
    7.4585   44.9756    0.0000 C   0  0  0  0  0  0  0  0  0  0  0  0
    8.6120   44.0167    0.0000 C   0  0  0  0  0  0  0  0  0  0  0  0
    9.7067   42.9912    0.0000 C   0  0  0  0  0  0  0  0  0  0  0  0
   10.7387   41.9026    0.0000 C   0  0  0  0  0  0  0  0  0  0  0  0
   11.7044   40.7548    0.0000 C   0  0  0  0  0  0  0  0  0  0  0  0
   12.6004   39.5518    0.0000 C   0  0  0  0  0  0  0  0  0  0  0  0
   13.4236   38.2979    0.0000 C   0  0  0  0  0  0  0  0  0  0  0  0
   14.1710   36.9973    0.0000 C   0  0  0  0  0  0  0  0  0  0  0  0
   14.8401   35.6548    0.0000 C   0  0  0  0  0  0  0  0  0  0  0  0
   15.4284   34.2750    0.0000 C   0  0  0  0  0  0  0  0  0  0  0  0
   15.9340   32.8628    0.0000 C   0  0  0  0  0  0  0  0  0  0  0  0
   16.3551   31.4231    0.0000 C   0  0  0  0  0  0  0  0  0  0  0  0
   16.6901   29.9610    0.0000 C   0  0  0  0  0  0  0  0  0  0  0  0
   16.9379   28.4816    0.0000 C   0  0  0  0  0  0  0  0  0  0  0  0
   17.0977   26.9902    0.0000 C   0  0  0  0  0  0  0  0  0  0  0  0
   17.1688   25.4918    0.0000 C   0  0  0  0  0  0  0  0  0  0  0  0
   17.1510   23.9920    0.0000 C   0  0  0  0  0  0  0  0  0  0  0  0
   17.0444   22.4957    0.0000 C   0  0  0  0  0  0  0  0  0  0  0  0
   16.8493   21.0085    0.0000 C   0  0  0  0  0  0  0  0  0  0  0  0
   16.5665   19.5354    0.0000 C   0  0  0  0  0  0  0  0  0  0  0  0
   16.1969   18.0816    0.0000 C   0  0  0  0  0  0  0  0  0  0  0  0
   15.7419   16.6523    0.0000 C   0  0  0  0  0  0  0  0  0  0  0  0
   15.2029   15.2525    0.0000 C   0  0  0  0  0  0  0  0  0  0  0  0
   14.5820   13.8870    0.0000 C   0  0  0  0  0  0  0  0  0  0  0  0
   13.8813   12.5608    0.0000 C   0  0  0  0  0  0  0  0  0  0  0  0
   13.1032   11.2783    0.0000 C   0  0  0  0  0  0  0  0  0  0  0  0
   12.2506   10.0442    0.0000 C   0  0  0  0  0  0  0  0  0  0  0  0
   11.3263    8.8628    0.0000 C   0  0  0  0  0  0  0  0  0  0  0  0
   10.3337    7.7383    0.0000 C   0  0  0  0  0  0  0  0  0  0  0  0
    9.2762    6.6745    0.0000 C   0  0  0  0  0  0  0  0  0  0  0  0
    8.1575    5.6752    0.0000 C   0  0  0  0  0  0  0  0  0  0  0  0
    6.9816    4.7439    0.0000 C   0  0  0  0  0  0  0  0  0  0  0  0
    5.7526    3.8840    0.0000 C   0  0  0  0  0  0  0  0  0  0  0  0
    4.4748    3.0983    0.0000 C   0  0  0  0  0  0  0  0  0  0  0  0
    3.1527    2.3897    0.0000 C   0  0  0  0  0  0  0  0  0  0  0  0
    1.7909    1.7607    0.0000 C   0  0  0  0  0  0  0  0  0  0  0  0
    0.3943    1.2135    0.0000 C   0  0  0  0  0  0  0  0  0  0  0  0
    1.2760    0.0000    0.0000 C   0  0  0  0  0  0  0  0  0  0  0  0
    0.3943   -1.2135    0.0000 C   0  0  0  0  0  0  0  0  0  0  0  0
   -1.0323   -0.7500    0.0000 C   0  0  0  0  0  0  0  0  0  0  0  0
   -1.0323    0.7500    0.0000 C   0  0  0  0  0  0  0  0  0  0  0  0
  1  2  1  0
  2  3  1  0
  3  4  1  0
  4  5  1  0
  5  6  1  0
  6  7  1  0
  7  8  1  0
  8  9  1  0
  9 10  1  0
 10 11  1  0
 11 12  1  0
 12 13  1  0
 13 14  1  0
 14 15  1  0
 15 16  1  0
 16 17  1  0
 17 18  1  0
 18 19  1  0
 19 20  1  0
 20 21  1  0
 21 22  1  0
 22 23  1  0
 23 24  1  0
 24 25  1  0
 25 26  1  0
 26 27  1  0
 27 28  1  0
 28 29  1  0
 29 30  1  0
 30 31  1  0
 31 32  1  0
 32 33  1  0
 33 34  1  0
 34 35  1  0
 35 36  1  0
 36 37  1  0
 37 38  1  0
 38 39  1  0
 39 40  1  0
 40 41  1  0
 41 42  1  0
 42 43  1  0
 43 44  1  0
 44 45  1  0
 45 46  1  0
 46 47  1  0
 47 48  1  0
 48 49  1  0
 49 50  1  0
 50 51  1  0
 51 52  1  0
 52 53  1  0
 53 54  1  0
 54 55  1  0
 55 56  1  0
 56 57  1  0
 57 58  1  0
 58 59  1  0
 59 60  1  0
 60 61  1  0
 61 62  1  0
 62 63  1  0
 63 64  1  0
 64 65  1  0
 65 66  1  0
 66 67  1  0
 67 68  1  0
 68 69  1  0
 69 70  1  0
 70 71  1  0
 71 72  1  0
 72 73  1  0
 73 74  1  0
 74 75  1  0
 75 76  1  0
 76 77  1  0
 77 78  1  0
 78 79  1  0
 79 80  1  0
 80 81  1  0
 81 82  1  0
 82 83  1  0
 83 84  1  0
 84 85  1  0
 85 86  1  0
 86 87  1  0
 87 88  1  0
 88 89  1  0
 89 90  1  0
 90 91  1  0
 91 92  1  0
 92 93  1  0
 93 94  1  0
 94 95  1  0
 95 96  2  0
 96 97  1  0
 97 98  2  0
 98 99  1  0
 99100  2  0
100101  1  0
101102  2  0
102103  1  0
103104  2  0
104105  1  0
105106  2  0
106107  1  0
107108  2  0
108109  1  0
109110  2  0
110  2  1  0
110106  1  0
M  END
>  <Title>  (878) 
idABFVgen14

$$$$

     RDKit          2D

 34 38  0  0  0  0  0  0  0  0999 V2000
   -3.0000   -2.5981    0.0000 C   0  0  0  0  0  0  0  0  0  0  0  0
   -1.5000   -2.5981    0.0000 C   0  0  0  0  0  0  0  0  0  0  0  0
   -0.7500   -3.8971    0.0000 C   0  0  0  0  0  0  0  0  0  0  0  0
    0.7500   -3.8971    0.0000 C   0  0  0  0  0  0  0  0  0  0  0  0
    1.5000   -2.5981    0.0000 C   0  0  0  0  0  0  0  0  0  0  0  0
    3.0000   -2.5981    0.0000 C   0  0  0  0  0  0  0  0  0  0  0  0
    3.7500   -1.2990    0.0000 O   0  0  0  0  0  0  0  0  0  0  0  0
    3.7500   -3.8971    0.0000 N   0  0  0  0  0  0  0  0  0  0  0  0
    5.2500   -3.8971    0.0000 C   0  0  0  0  0  0  0  0  0  0  0  0
    6.1317   -2.6836    0.0000 N   0  0  0  0  0  0  0  0  0  0  0  0
    7.5583   -3.1471    0.0000 N   0  0  0  0  0  0  0  0  0  0  0  0
    7.5583   -4.6471    0.0000 N   0  0  0  0  0  0  0  0  0  0  0  0
    6.1317   -5.1106    0.0000 N   0  0  0  0  0  0  0  0  0  0  0  0
    5.6682   -6.5372    0.0000 N   0  0  0  0  0  0  0  0  0  0  0  0
    6.5498   -7.7508    0.0000 C   0  0  0  0  0  0  0  0  0  0  0  0
    5.6682   -8.9643    0.0000 C   0  0  0  0  0  0  0  0  0  0  0  0
    4.2416   -8.5008    0.0000 N   0  0  0  0  0  0  0  0  0  0  0  0
    3.0280   -9.3824    0.0000 C   0  0  0  0  0  0  0  0  0  0  0  0
    3.1848  -10.8742    0.0000 O   0  0  0  0  0  0  0  0  0  0  0  0
    1.6577   -8.7723    0.0000 N   0  0  0  0  0  0  0  0  0  0  0  0
    0.4442   -9.6540    0.0000 C   0  0  0  0  0  0  0  0  0  0  0  0
   -0.9261   -9.0439    0.0000 N   0  0  0  0  0  0  0  0  0  0  0  0
   -2.1396   -9.9256    0.0000 N   0  0  0  0  0  0  0  0  0  0  0  0
   -1.9829  -11.4174    0.0000 N   0  0  0  0  0  0  0  0  0  0  0  0
   -0.6125  -12.0275    0.0000 N   0  0  0  0  0  0  0  0  0  0  0  0
    0.6010  -11.1458    0.0000 N   0  0  0  0  0  0  0  0  0  0  0  0
    4.2416   -7.0008    0.0000 C   0  0  0  0  0  0  0  0  0  0  0  0
    3.0280   -6.1191    0.0000 O   0  0  0  0  0  0  0  0  0  0  0  0
    0.7500   -1.2990    0.0000 C   0  0  0  0  0  0  0  0  0  0  0  0
    1.5000    0.0000    0.0000 C   0  0  0  0  0  0  0  0  0  0  0  0
    0.7500    1.2990    0.0000 C   0  0  0  0  0  0  0  0  0  0  0  0
   -0.7500    1.2990    0.0000 C   0  0  0  0  0  0  0  0  0  0  0  0
   -1.5000    0.0000    0.0000 C   0  0  0  0  0  0  0  0  0  0  0  0
   -0.7500   -1.2990    0.0000 C   0  0  0  0  0  0  0  0  0  0  0  0
  1  2  1  0
  2  3  2  0
  3  4  1  0
  4  5  1  0
  5  6  1  0
  6  7  2  0
  6  8  1  0
  8  9  1  0
  9 10  2  0
 10 11  1  0
 11 12  2  0
 12 13  1  0
 13 14  1  0
 14 15  1  0
 15 16  1  0
 16 17  1  0
 17 18  1  0
 18 19  2  0
 18 20  1  0
 20 21  1  0
 21 22  2  0
 22 23  1  0
 23 24  2  0
 24 25  1  0
 25 26  2  0
 17 27  1  0
 27 28  2  0
  5 29  1  0
 29 30  2  0
 30 31  1  0
 31 32  2  0
 32 33  1  0
 33 34  2  0
 34  2  1  0
 13  9  1  0
 27 14  1  0
 34 29  1  0
 26 21  1  0
M  END
>  <Title>  (879) 
idABFWgen14

$$$$

     RDKit          2D

 35 39  0  0  0  0  0  0  0  0999 V2000
   -3.7500   -3.8971    0.0000 C   0  0  0  0  0  0  0  0  0  0  0  0
   -3.0000   -2.5981    0.0000 C   0  0  0  0  0  0  0  0  0  0  0  0
   -1.5000   -2.5981    0.0000 C   0  0  0  0  0  0  0  0  0  0  0  0
   -0.7500   -3.8971    0.0000 C   0  0  0  0  0  0  0  0  0  0  0  0
    0.7500   -3.8971    0.0000 C   0  0  0  0  0  0  0  0  0  0  0  0
    1.5000   -2.5981    0.0000 C   0  0  0  0  0  0  0  0  0  0  0  0
    3.0000   -2.5981    0.0000 C   0  0  0  0  0  0  0  0  0  0  0  0
    3.7500   -1.2990    0.0000 O   0  0  0  0  0  0  0  0  0  0  0  0
    3.7500   -3.8971    0.0000 N   0  0  0  0  0  0  0  0  0  0  0  0
    5.2500   -3.8971    0.0000 C   0  0  0  0  0  0  0  0  0  0  0  0
    6.1317   -2.6836    0.0000 N   0  0  0  0  0  0  0  0  0  0  0  0
    7.5583   -3.1471    0.0000 N   0  0  0  0  0  0  0  0  0  0  0  0
    7.5583   -4.6471    0.0000 N   0  0  0  0  0  0  0  0  0  0  0  0
    6.1317   -5.1106    0.0000 N   0  0  0  0  0  0  0  0  0  0  0  0
    5.6682   -6.5372    0.0000 N   0  0  0  0  0  0  0  0  0  0  0  0
    6.5498   -7.7508    0.0000 C   0  0  0  0  0  0  0  0  0  0  0  0
    5.6682   -8.9643    0.0000 C   0  0  0  0  0  0  0  0  0  0  0  0
    4.2416   -8.5008    0.0000 N   0  0  0  0  0  0  0  0  0  0  0  0
    3.0280   -9.3824    0.0000 C   0  0  0  0  0  0  0  0  0  0  0  0
    3.1848  -10.8742    0.0000 O   0  0  0  0  0  0  0  0  0  0  0  0
    1.6577   -8.7723    0.0000 N   0  0  0  0  0  0  0  0  0  0  0  0
    0.4442   -9.6540    0.0000 C   0  0  0  0  0  0  0  0  0  0  0  0
   -0.9261   -9.0439    0.0000 N   0  0  0  0  0  0  0  0  0  0  0  0
   -2.1396   -9.9256    0.0000 N   0  0  0  0  0  0  0  0  0  0  0  0
   -1.9829  -11.4174    0.0000 N   0  0  0  0  0  0  0  0  0  0  0  0
   -0.6125  -12.0275    0.0000 N   0  0  0  0  0  0  0  0  0  0  0  0
    0.6010  -11.1458    0.0000 N   0  0  0  0  0  0  0  0  0  0  0  0
    4.2416   -7.0008    0.0000 C   0  0  0  0  0  0  0  0  0  0  0  0
    3.0280   -6.1191    0.0000 O   0  0  0  0  0  0  0  0  0  0  0  0
    0.7500   -1.2990    0.0000 C   0  0  0  0  0  0  0  0  0  0  0  0
    1.5000    0.0000    0.0000 C   0  0  0  0  0  0  0  0  0  0  0  0
    0.7500    1.2990    0.0000 C   0  0  0  0  0  0  0  0  0  0  0  0
   -0.7500    1.2990    0.0000 C   0  0  0  0  0  0  0  0  0  0  0  0
   -1.5000    0.0000    0.0000 C   0  0  0  0  0  0  0  0  0  0  0  0
   -0.7500   -1.2990    0.0000 C   0  0  0  0  0  0  0  0  0  0  0  0
  1  2  1  0
  2  3  1  0
  3  4  2  0
  4  5  1  0
  5  6  2  0
  6  7  1  0
  7  8  2  0
  7  9  1  0
  9 10  1  0
 10 11  2  0
 11 12  1  0
 12 13  2  0
 13 14  1  0
 14 15  1  0
 15 16  1  0
 16 17  1  0
 17 18  1  0
 18 19  1  0
 19 20  2  0
 19 21  1  0
 21 22  1  0
 22 23  2  0
 23 24  1  0
 24 25  2  0
 25 26  1  0
 26 27  2  0
 18 28  1  0
 28 29  2  0
  6 30  1  0
 30 31  2  0
 31 32  1  0
 32 33  2  0
 33 34  1  0
 34 35  2  0
 35  3  1  0
 14 10  1  0
 28 15  1  0
 35 30  1  0
 27 22  1  0
M  END
>  <Title>  (880) 
idABFXgen14

$$$$

     RDKit          2D

 91 92  0  0  0  0  0  0  0  0999 V2000
    0.3218    3.2352    0.0000 C   0  0  0  0  0  0  0  0  0  0  0  0
    1.6339    3.9621    0.0000 C   0  0  0  0  0  0  0  0  0  0  0  0
    0.9611    5.3028    0.0000 C   0  0  0  0  0  0  0  0  0  0  0  0
    0.3999    6.6938    0.0000 C   0  0  0  0  0  0  0  0  0  0  0  0
   -0.0462    8.1259    0.0000 C   0  0  0  0  0  0  0  0  0  0  0  0
   -0.3740    9.5897    0.0000 C   0  0  0  0  0  0  0  0  0  0  0  0
   -0.5814   11.0753    0.0000 C   0  0  0  0  0  0  0  0  0  0  0  0
   -0.6670   12.5728    0.0000 C   0  0  0  0  0  0  0  0  0  0  0  0
   -0.6303   14.0724    0.0000 C   0  0  0  0  0  0  0  0  0  0  0  0
   -0.4715   15.5639    0.0000 C   0  0  0  0  0  0  0  0  0  0  0  0
   -0.1916   17.0376    0.0000 C   0  0  0  0  0  0  0  0  0  0  0  0
    0.2074   18.4835    0.0000 C   0  0  0  0  0  0  0  0  0  0  0  0
    0.7230   19.8921    0.0000 C   0  0  0  0  0  0  0  0  0  0  0  0
    1.3517   21.2540    0.0000 C   0  0  0  0  0  0  0  0  0  0  0  0
    2.0893   22.5602    0.0000 C   0  0  0  0  0  0  0  0  0  0  0  0
    2.9309   23.8018    0.0000 C   0  0  0  0  0  0  0  0  0  0  0  0
    3.8709   24.9707    0.0000 C   0  0  0  0  0  0  0  0  0  0  0  0
    4.9031   26.0591    0.0000 C   0  0  0  0  0  0  0  0  0  0  0  0
    6.0205   27.0598    0.0000 C   0  0  0  0  0  0  0  0  0  0  0  0
    7.2158   27.9661    0.0000 C   0  0  0  0  0  0  0  0  0  0  0  0
    8.4810   28.7719    0.0000 C   0  0  0  0  0  0  0  0  0  0  0  0
    9.8076   29.4719    0.0000 C   0  0  0  0  0  0  0  0  0  0  0  0
   11.1869   30.0614    0.0000 C   0  0  0  0  0  0  0  0  0  0  0  0
   12.6097   30.5366    0.0000 C   0  0  0  0  0  0  0  0  0  0  0  0
   14.0664   30.8942    0.0000 C   0  0  0  0  0  0  0  0  0  0  0  0
   15.5475   31.1318    0.0000 C   0  0  0  0  0  0  0  0  0  0  0  0
   17.0430   31.2480    0.0000 C   0  0  0  0  0  0  0  0  0  0  0  0
   18.5430   31.2419    0.0000 C   0  0  0  0  0  0  0  0  0  0  0  0
   20.0375   31.1135    0.0000 C   0  0  0  0  0  0  0  0  0  0  0  0
   21.5165   30.8638    0.0000 C   0  0  0  0  0  0  0  0  0  0  0  0
   22.9703   30.4943    0.0000 C   0  0  0  0  0  0  0  0  0  0  0  0
   24.3891   30.0075    0.0000 C   0  0  0  0  0  0  0  0  0  0  0  0
   25.7636   29.4068    0.0000 C   0  0  0  0  0  0  0  0  0  0  0  0
   27.0845   28.6960    0.0000 C   0  0  0  0  0  0  0  0  0  0  0  0
   28.3430   27.8799    0.0000 C   0  0  0  0  0  0  0  0  0  0  0  0
   29.5309   26.9639    0.0000 C   0  0  0  0  0  0  0  0  0  0  0  0
   30.6401   25.9541    0.0000 C   0  0  0  0  0  0  0  0  0  0  0  0
   31.6634   24.8573    0.0000 C   0  0  0  0  0  0  0  0  0  0  0  0
   32.5938   23.6808    0.0000 C   0  0  0  0  0  0  0  0  0  0  0  0
   33.4253   22.4323    0.0000 C   0  0  0  0  0  0  0  0  0  0  0  0
   34.1522   21.1202    0.0000 C   0  0  0  0  0  0  0  0  0  0  0  0
   34.7697   19.7532    0.0000 C   0  0  0  0  0  0  0  0  0  0  0  0
   35.2738   18.3405    0.0000 C   0  0  0  0  0  0  0  0  0  0  0  0
   35.6610   16.8913    0.0000 C   0  0  0  0  0  0  0  0  0  0  0  0
   35.9289   15.4154    0.0000 C   0  0  0  0  0  0  0  0  0  0  0  0
   36.0755   13.9226    0.0000 C   0  0  0  0  0  0  0  0  0  0  0  0
   36.1000   12.4228    0.0000 C   0  0  0  0  0  0  0  0  0  0  0  0
   36.0021   10.9260    0.0000 C   0  0  0  0  0  0  0  0  0  0  0  0
   35.7826    9.4422    0.0000 C   0  0  0  0  0  0  0  0  0  0  0  0
   35.4429    7.9811    0.0000 C   0  0  0  0  0  0  0  0  0  0  0  0
   34.9852    6.5527    0.0000 C   0  0  0  0  0  0  0  0  0  0  0  0
   34.4126    5.1663    0.0000 C   0  0  0  0  0  0  0  0  0  0  0  0
   33.7289    3.8312    0.0000 C   0  0  0  0  0  0  0  0  0  0  0  0
   32.9386    2.5562    0.0000 C   0  0  0  0  0  0  0  0  0  0  0  0
   32.0470    1.3499    0.0000 C   0  0  0  0  0  0  0  0  0  0  0  0
   31.0601    0.2203    0.0000 C   0  0  0  0  0  0  0  0  0  0  0  0
   29.9844   -0.8251    0.0000 C   0  0  0  0  0  0  0  0  0  0  0  0
   28.8271   -1.7793    0.0000 C   0  0  0  0  0  0  0  0  0  0  0  0
   27.5958   -2.6361    0.0000 C   0  0  0  0  0  0  0  0  0  0  0  0
   26.2989   -3.3896    0.0000 C   0  0  0  0  0  0  0  0  0  0  0  0
   24.9448   -4.0349    0.0000 C   0  0  0  0  0  0  0  0  0  0  0  0
   23.5426   -4.5677    0.0000 C   0  0  0  0  0  0  0  0  0  0  0  0
   22.1016   -4.9844    0.0000 C   0  0  0  0  0  0  0  0  0  0  0  0
   20.6315   -5.2823    0.0000 C   0  0  0  0  0  0  0  0  0  0  0  0
   19.1420   -5.4594    0.0000 C   0  0  0  0  0  0  0  0  0  0  0  0
   17.6430   -5.5145    0.0000 C   0  0  0  0  0  0  0  0  0  0  0  0
   16.1445   -5.4472    0.0000 C   0  0  0  0  0  0  0  0  0  0  0  0
   14.6565   -5.2579    0.0000 C   0  0  0  0  0  0  0  0  0  0  0  0
   13.1888   -4.9481    0.0000 C   0  0  0  0  0  0  0  0  0  0  0  0
   11.7513   -4.5196    0.0000 C   0  0  0  0  0  0  0  0  0  0  0  0
   10.3535   -3.9754    0.0000 C   0  0  0  0  0  0  0  0  0  0  0  0
    9.0048   -3.3191    0.0000 C   0  0  0  0  0  0  0  0  0  0  0  0
    7.7140   -2.5550    0.0000 C   0  0  0  0  0  0  0  0  0  0  0  0
    6.4897   -1.6882    0.0000 C   0  0  0  0  0  0  0  0  0  0  0  0
    5.3402   -0.7246    0.0000 C   0  0  0  0  0  0  0  0  0  0  0  0
    4.2731    0.3296    0.0000 C   0  0  0  0  0  0  0  0  0  0  0  0
    3.2954    1.4672    0.0000 C   0  0  0  0  0  0  0  0  0  0  0  0
    3.6073    0.0000    0.0000 C   0  0  0  0  0  0  0  0  0  0  0  0
    3.2954   -1.4672    0.0000 C   0  0  0  0  0  0  0  0  0  0  0  0
    2.4138   -2.6807    0.0000 C   0  0  0  0  0  0  0  0  0  0  0  0
    1.1147   -3.4307    0.0000 C   0  0  0  0  0  0  0  0  0  0  0  0
   -0.3771   -3.5875    0.0000 C   0  0  0  0  0  0  0  0  0  0  0  0
   -1.8037   -3.1240    0.0000 C   0  0  0  0  0  0  0  0  0  0  0  0
   -2.9184   -2.1203    0.0000 C   0  0  0  0  0  0  0  0  0  0  0  0
   -3.5285   -0.7500    0.0000 C   0  0  0  0  0  0  0  0  0  0  0  0
   -3.5285    0.7500    0.0000 C   0  0  0  0  0  0  0  0  0  0  0  0
   -2.9184    2.1203    0.0000 C   0  0  0  0  0  0  0  0  0  0  0  0
   -1.8037    3.1240    0.0000 C   0  0  0  0  0  0  0  0  0  0  0  0
   -0.3771    3.5875    0.0000 C   0  0  0  0  0  0  0  0  0  0  0  0
    1.1147    3.4307    0.0000 C   0  0  0  0  0  0  0  0  0  0  0  0
    2.4138    2.6807    0.0000 C   0  0  0  0  0  0  0  0  0  0  0  0
  1  2  1  0
  2  3  1  0
  3  4  1  0
  4  5  1  0
  5  6  1  0
  6  7  1  0
  7  8  1  0
  8  9  1  0
  9 10  1  0
 10 11  1  0
 11 12  1  0
 12 13  1  0
 13 14  1  0
 14 15  1  0
 15 16  1  0
 16 17  1  0
 17 18  1  0
 18 19  1  0
 19 20  1  0
 20 21  1  0
 21 22  1  0
 22 23  1  0
 23 24  1  0
 24 25  1  0
 25 26  1  0
 26 27  1  0
 27 28  1  0
 28 29  1  0
 29 30  1  0
 30 31  1  0
 31 32  1  0
 32 33  1  0
 33 34  1  0
 34 35  1  0
 35 36  1  0
 36 37  1  0
 37 38  1  0
 38 39  1  0
 39 40  1  0
 40 41  1  0
 41 42  1  0
 42 43  1  0
 43 44  1  0
 44 45  1  0
 45 46  1  0
 46 47  1  0
 47 48  1  0
 48 49  1  0
 49 50  1  0
 50 51  1  0
 51 52  1  0
 52 53  1  0
 53 54  1  0
 54 55  1  0
 55 56  1  0
 56 57  1  0
 57 58  1  0
 58 59  1  0
 59 60  1  0
 60 61  1  0
 61 62  1  0
 62 63  1  0
 63 64  1  0
 64 65  1  0
 65 66  1  0
 66 67  1  0
 67 68  1  0
 68 69  1  0
 69 70  1  0
 70 71  1  0
 71 72  1  0
 72 73  1  0
 73 74  1  0
 74 75  1  0
 75 76  1  0
 76 77  1  0
 77 78  1  0
 78 79  1  0
 79 80  1  0
 80 81  2  0
 81 82  1  0
 82 83  2  0
 83 84  1  0
 84 85  2  0
 85 86  1  0
 86 87  2  0
 87 88  1  0
 88 89  2  0
 89 90  1  0
 90 91  2  0
 91  2  1  0
 91 77  1  0
M  END
>  <Title>  (881) 
idABFYgen14

$$$$

     RDKit          2D

  4  3  0  0  0  0  0  0  0  0999 V2000
    0.0000    0.0000    0.0000 C   0  0  0  0  0  0  0  0  0  0  0  0
   -0.0000   -1.5000    0.0000 C   0  0  0  0  0  0  0  0  0  0  0  0
   -0.0000   -3.0000    0.0000 C   0  0  0  0  0  0  0  0  0  0  0  0
    1.2990   -3.7500    0.0000 C   0  0  0  0  0  0  0  0  0  0  0  0
  1  2  3  0
  2  3  1  0
  3  4  1  0
M  END
>  <Title>  (882) 
idABFZgen14

$$$$

     RDKit          2D

  6  6  0  0  0  0  0  0  0  0999 V2000
    2.7760    0.0000    0.0000 C   0  0  0  0  0  0  0  0  0  0  0  0
    1.2760    0.0000    0.0000 C   0  0  0  0  0  0  0  0  0  0  0  0
    0.3943    1.2135    0.0000 C   0  0  0  0  0  0  0  0  0  0  0  0
   -1.0323    0.7500    0.0000 C   0  0  0  0  0  0  0  0  0  0  0  0
   -1.0323   -0.7500    0.0000 C   0  0  0  0  0  0  0  0  0  0  0  0
    0.3943   -1.2135    0.0000 C   0  0  0  0  0  0  0  0  0  0  0  0
  1  2  1  0
  2  3  1  0
  3  4  2  0
  4  5  1  0
  5  6  2  0
  6  2  1  0
M  END
>  <Title>  (883) 
idABGAgen14

$$$$

     RDKit          2D

 41 45  0  0  0  0  0  0  0  0999 V2000
   -6.0000   -7.7942    0.0000 C   0  0  0  0  0  0  0  0  0  0  0  0
   -5.2500   -6.4952    0.0000 C   0  0  0  0  0  0  0  0  0  0  0  0
   -6.0000   -5.1962    0.0000 C   0  0  0  0  0  0  0  0  0  0  0  0
   -7.5000   -5.1962    0.0000 C   0  0  0  0  0  0  0  0  0  0  0  0
   -5.2500   -3.8971    0.0000 N   0  0  0  0  0  0  0  0  0  0  0  0
   -3.7500   -3.8971    0.0000 C   0  0  0  0  0  0  0  0  0  0  0  0
   -3.0000   -5.1962    0.0000 O   0  0  0  0  0  0  0  0  0  0  0  0
   -3.0000   -2.5981    0.0000 C   0  0  0  0  0  0  0  0  0  0  0  0
   -1.5000   -2.5981    0.0000 C   0  0  0  0  0  0  0  0  0  0  0  0
   -0.7500   -3.8971    0.0000 C   0  0  0  0  0  0  0  0  0  0  0  0
    0.7500   -3.8971    0.0000 C   0  0  0  0  0  0  0  0  0  0  0  0
    1.5000   -2.5981    0.0000 C   0  0  0  0  0  0  0  0  0  0  0  0
    3.0000   -2.5981    0.0000 C   0  0  0  0  0  0  0  0  0  0  0  0
    3.7500   -1.2990    0.0000 O   0  0  0  0  0  0  0  0  0  0  0  0
    3.7500   -3.8971    0.0000 N   0  0  0  0  0  0  0  0  0  0  0  0
    5.2500   -3.8971    0.0000 C   0  0  0  0  0  0  0  0  0  0  0  0
    6.1317   -2.6836    0.0000 N   0  0  0  0  0  0  0  0  0  0  0  0
    7.5583   -3.1471    0.0000 N   0  0  0  0  0  0  0  0  0  0  0  0
    7.5583   -4.6471    0.0000 N   0  0  0  0  0  0  0  0  0  0  0  0
    6.1317   -5.1106    0.0000 N   0  0  0  0  0  0  0  0  0  0  0  0
    5.6682   -6.5372    0.0000 N   0  0  0  0  0  0  0  0  0  0  0  0
    6.5498   -7.7508    0.0000 C   0  0  0  0  0  0  0  0  0  0  0  0
    5.6682   -8.9643    0.0000 C   0  0  0  0  0  0  0  0  0  0  0  0
    4.2416   -8.5008    0.0000 N   0  0  0  0  0  0  0  0  0  0  0  0
    3.0280   -9.3824    0.0000 C   0  0  0  0  0  0  0  0  0  0  0  0
    3.1848  -10.8742    0.0000 O   0  0  0  0  0  0  0  0  0  0  0  0
    1.6577   -8.7723    0.0000 N   0  0  0  0  0  0  0  0  0  0  0  0
    0.4442   -9.6540    0.0000 C   0  0  0  0  0  0  0  0  0  0  0  0
   -0.9261   -9.0439    0.0000 N   0  0  0  0  0  0  0  0  0  0  0  0
   -2.1396   -9.9256    0.0000 N   0  0  0  0  0  0  0  0  0  0  0  0
   -1.9829  -11.4174    0.0000 N   0  0  0  0  0  0  0  0  0  0  0  0
   -0.6125  -12.0275    0.0000 N   0  0  0  0  0  0  0  0  0  0  0  0
    0.6010  -11.1458    0.0000 N   0  0  0  0  0  0  0  0  0  0  0  0
    4.2416   -7.0008    0.0000 C   0  0  0  0  0  0  0  0  0  0  0  0
    3.0280   -6.1191    0.0000 O   0  0  0  0  0  0  0  0  0  0  0  0
    0.7500   -1.2990    0.0000 C   0  0  0  0  0  0  0  0  0  0  0  0
    1.5000    0.0000    0.0000 C   0  0  0  0  0  0  0  0  0  0  0  0
    0.7500    1.2990    0.0000 C   0  0  0  0  0  0  0  0  0  0  0  0
   -0.7500    1.2990    0.0000 C   0  0  0  0  0  0  0  0  0  0  0  0
   -1.5000    0.0000    0.0000 C   0  0  0  0  0  0  0  0  0  0  0  0
   -0.7500   -1.2990    0.0000 C   0  0  0  0  0  0  0  0  0  0  0  0
  1  2  1  0
  2  3  1  0
  3  4  1  0
  3  5  1  0
  5  6  1  0
  6  7  2  0
  6  8  1  0
  8  9  1  0
  9 10  2  0
 10 11  1  0
 11 12  2  0
 12 13  1  0
 13 14  2  0
 13 15  1  0
 15 16  1  0
 16 17  2  0
 17 18  1  0
 18 19  2  0
 19 20  1  0
 20 21  1  0
 21 22  1  0
 22 23  1  0
 23 24  1  0
 24 25  1  0
 25 26  2  0
 25 27  1  0
 27 28  1  0
 28 29  2  0
 29 30  1  0
 30 31  2  0
 31 32  1  0
 32 33  2  0
 24 34  1  0
 34 35  2  0
 12 36  1  0
 36 37  2  0
 37 38  1  0
 38 39  2  0
 39 40  1  0
 40 41  2  0
 41  9  1  0
 20 16  1  0
 34 21  1  0
 41 36  1  0
 33 28  1  0
M  END
>  <Title>  (884) 
idABGBgen14

$$$$

     RDKit          2D

 10 10  0  0  0  0  0  0  0  0999 V2000
    7.5000    0.0000    0.0000 C   0  0  0  0  0  0  0  0  0  0  0  0
    6.0000    0.0000    0.0000 C   0  0  0  0  0  0  0  0  0  0  0  0
    4.5000    0.0000    0.0000 C   0  0  0  0  0  0  0  0  0  0  0  0
    3.0000    0.0000    0.0000 C   0  0  0  0  0  0  0  0  0  0  0  0
    1.5000    0.0000    0.0000 C   0  0  0  0  0  0  0  0  0  0  0  0
    0.7500   -1.2990    0.0000 C   0  0  0  0  0  0  0  0  0  0  0  0
   -0.7500   -1.2990    0.0000 C   0  0  0  0  0  0  0  0  0  0  0  0
   -1.5000    0.0000    0.0000 C   0  0  0  0  0  0  0  0  0  0  0  0
   -0.7500    1.2990    0.0000 C   0  0  0  0  0  0  0  0  0  0  0  0
    0.7500    1.2990    0.0000 C   0  0  0  0  0  0  0  0  0  0  0  0
  1  2  3  0
  2  3  1  0
  3  4  3  0
  4  5  1  0
  5  6  2  0
  6  7  1  0
  7  8  1  0
  8  9  1  0
  9 10  2  0
 10  5  1  0
M  END
>  <Title>  (885) 
idABGCgen14

$$$$

     RDKit          2D

  6  5  0  0  0  0  0  0  0  0999 V2000
    0.0000    0.0000    0.0000 C   0  0  0  0  0  0  0  0  0  0  0  0
    1.2990    0.7500    0.0000 C   0  0  0  0  0  0  0  0  0  0  0  0
    2.5981   -0.0000    0.0000 C   0  0  0  0  0  0  0  0  0  0  0  0
    3.8971    0.7500    0.0000 O   0  0  0  0  0  0  0  0  0  0  0  0
    5.1962   -0.0000    0.0000 C   0  0  0  0  0  0  0  0  0  0  0  0
    6.4952    0.7500    0.0000 C   0  0  0  0  0  0  0  0  0  0  0  0
  1  2  1  0
  2  3  1  0
  3  4  1  0
  4  5  1  0
  5  6  1  0
M  END
>  <Title>  (886) 
idABGDgen14

$$$$

     RDKit          2D

 26 29  0  0  0  0  0  0  0  0999 V2000
   -4.4388  -10.3552    0.0000 C   0  0  0  0  0  0  0  0  0  0  0  0
   -2.9716  -10.0434    0.0000 C   0  0  0  0  0  0  0  0  0  0  0  0
   -1.9679  -11.1581    0.0000 C   0  0  0  0  0  0  0  0  0  0  0  0
   -2.5081   -8.6168    0.0000 C   0  0  0  0  0  0  0  0  0  0  0  0
   -1.0409   -8.3049    0.0000 C   0  0  0  0  0  0  0  0  0  0  0  0
   -0.0372   -9.4196    0.0000 O   0  0  0  0  0  0  0  0  0  0  0  0
   -0.5773   -6.8783    0.0000 N   0  0  0  0  0  0  0  0  0  0  0  0
    0.8899   -6.5665    0.0000 C   0  0  0  0  0  0  0  0  0  0  0  0
    2.0046   -7.5702    0.0000 N   0  0  0  0  0  0  0  0  0  0  0  0
    3.3037   -6.8202    0.0000 N   0  0  0  0  0  0  0  0  0  0  0  0
    2.9918   -5.3529    0.0000 N   0  0  0  0  0  0  0  0  0  0  0  0
    1.5000   -5.1962    0.0000 N   0  0  0  0  0  0  0  0  0  0  0  0
    0.7500   -3.8971    0.0000 N   0  0  0  0  0  0  0  0  0  0  0  0
    1.5000   -2.5981    0.0000 C   0  0  0  0  0  0  0  0  0  0  0  0
    0.7500   -1.2990    0.0000 C   0  0  0  0  0  0  0  0  0  0  0  0
    1.5000    0.0000    0.0000 C   0  0  0  0  0  0  0  0  0  0  0  0
    0.7500    1.2990    0.0000 C   0  0  0  0  0  0  0  0  0  0  0  0
   -0.7500    1.2990    0.0000 C   0  0  0  0  0  0  0  0  0  0  0  0
   -1.5000    0.0000    0.0000 C   0  0  0  0  0  0  0  0  0  0  0  0
   -0.7500   -1.2990    0.0000 C   0  0  0  0  0  0  0  0  0  0  0  0
   -1.5000   -2.5981    0.0000 C   0  0  0  0  0  0  0  0  0  0  0  0
   -3.0000   -2.5981    0.0000 C   0  0  0  0  0  0  0  0  0  0  0  0
   -3.7500   -3.8971    0.0000 C   0  0  0  0  0  0  0  0  0  0  0  0
   -3.0000   -5.1962    0.0000 C   0  0  0  0  0  0  0  0  0  0  0  0
   -1.5000   -5.1962    0.0000 C   0  0  0  0  0  0  0  0  0  0  0  0
   -0.7500   -3.8971    0.0000 C   0  0  0  0  0  0  0  0  0  0  0  0
  1  2  1  0
  2  3  1  0
  2  4  1  0
  4  5  1  0
  5  6  2  0
  5  7  1  0
  7  8  1  0
  8  9  2  0
  9 10  1  0
 10 11  2  0
 11 12  1  0
 12 13  1  0
 13 14  1  0
 14 15  1  0
 15 16  2  0
 16 17  1  0
 17 18  2  0
 18 19  1  0
 19 20  2  0
 20 21  1  0
 21 22  2  0
 22 23  1  0
 23 24  2  0
 24 25  1  0
 25 26  2  0
 12  8  1  0
 26 13  1  0
 20 15  1  0
 26 21  1  0
M  END
>  <Title>  (887) 
idABGEgen14

$$$$

     RDKit          2D

  6  5  0  0  0  0  0  0  0  0999 V2000
    0.0000    0.0000    0.0000 C   0  0  0  0  0  0  0  0  0  0  0  0
    1.2990    0.7500    0.0000 C   0  0  0  0  0  0  0  0  0  0  0  0
    2.5981   -0.0000    0.0000 C   0  0  0  0  0  0  0  0  0  0  0  0
    3.8971    0.7500    0.0000 C   0  0  0  0  0  0  0  0  0  0  0  0
    5.1962   -0.0000    0.0000 C   0  0  0  0  0  0  0  0  0  0  0  0
    6.4952    0.7500    0.0000 C   0  0  0  0  0  0  0  0  0  0  0  0
  1  2  2  0
  2  3  1  0
  3  4  2  3
  4  5  1  0
  5  6  1  0
M  END
>  <Title>  (888) 
idABGFgen14

$$$$

     RDKit          2D

 17 17  0  0  0  0  0  0  0  0999 V2000
   10.5000    0.0000    0.0000 C   0  0  0  0  0  0  0  0  0  0  0  0
    9.7500   -1.2990    0.0000 C   0  0  0  0  0  0  0  0  0  0  0  0
    8.2500   -1.2990    0.0000 C   0  0  0  0  0  0  0  0  0  0  0  0
    7.5000   -2.5981    0.0000 C   0  0  0  0  0  0  0  0  0  0  0  0
    8.2500   -3.8971    0.0000 C   0  0  0  0  0  0  0  0  0  0  0  0
    6.0000   -2.5981    0.0000 N   0  0  0  0  0  0  0  0  0  0  0  0
    5.2500   -1.2990    0.0000 C   0  0  0  0  0  0  0  0  0  0  0  0
    6.0000    0.0000    0.0000 O   0  0  0  0  0  0  0  0  0  0  0  0
    3.7500   -1.2990    0.0000 N   0  0  0  0  0  0  0  0  0  0  0  0
    3.0000    0.0000    0.0000 C   0  0  0  0  0  0  0  0  0  0  0  0
    1.5000    0.0000    0.0000 C   0  0  0  0  0  0  0  0  0  0  0  0
    0.7500   -1.2990    0.0000 C   0  0  0  0  0  0  0  0  0  0  0  0
   -0.7500   -1.2990    0.0000 C   0  0  0  0  0  0  0  0  0  0  0  0
   -1.5000    0.0000    0.0000 C   0  0  0  0  0  0  0  0  0  0  0  0
   -3.0000    0.0000    0.0000 F   0  0  0  0  0  0  0  0  0  0  0  0
   -0.7500    1.2990    0.0000 C   0  0  0  0  0  0  0  0  0  0  0  0
    0.7500    1.2990    0.0000 C   0  0  0  0  0  0  0  0  0  0  0  0
  1  2  1  0
  2  3  1  0
  3  4  1  0
  4  5  1  0
  4  6  1  0
  6  7  1  0
  7  8  2  0
  7  9  1  0
  9 10  1  0
 10 11  1  0
 11 12  2  0
 12 13  1  0
 13 14  2  0
 14 15  1  0
 14 16  1  0
 16 17  2  0
 17 11  1  0
M  END
>  <Title>  (889) 
idABGGgen14

$$$$

     RDKit          2D

 18 19  0  0  0  0  0  0  0  0999 V2000
    3.0000    0.0000    0.0000 C   0  0  0  0  0  0  0  0  0  0  0  0
    1.5000    0.0000    0.0000 C   0  0  0  0  0  0  0  0  0  0  0  0
    0.7500   -1.2990    0.0000 C   0  0  0  0  0  0  0  0  0  0  0  0
   -0.7500   -1.2990    0.0000 C   0  0  0  0  0  0  0  0  0  0  0  0
   -1.5000    0.0000    0.0000 C   0  0  0  0  0  0  0  0  0  0  0  0
   -0.7500    1.2990    0.0000 C   0  0  0  0  0  0  0  0  0  0  0  0
    0.7500    1.2990    0.0000 C   0  0  0  0  0  0  0  0  0  0  0  0
    1.5000    2.5981    0.0000 C   0  0  0  0  0  0  0  0  0  0  0  0
    3.0000    2.5981    0.0000 O   0  0  0  0  0  0  0  0  0  0  0  0
    0.7500    3.8971    0.0000 N   0  0  0  0  0  0  0  0  0  0  0  0
    1.5000    5.1962    0.0000 C   0  0  0  0  0  0  0  0  0  0  0  0
    0.7500    6.4952    0.0000 C   0  0  0  0  0  0  0  0  0  0  0  0
    1.5000    7.7942    0.0000 C   0  0  0  0  0  0  0  0  0  0  0  0
    3.0000    7.7942    0.0000 C   0  0  0  0  0  0  0  0  0  0  0  0
    3.7500    9.0933    0.0000 C   0  0  0  0  0  0  0  0  0  0  0  0
    3.0000   10.3923    0.0000 C   0  0  0  0  0  0  0  0  0  0  0  0
    1.5000   10.3923    0.0000 N   0  0  0  0  0  0  0  0  0  0  0  0
    0.7500    9.0933    0.0000 C   0  0  0  0  0  0  0  0  0  0  0  0
  1  2  1  0
  2  3  1  0
  3  4  1  0
  4  5  1  0
  5  6  1  0
  6  7  1  0
  7  8  1  0
  8  9  2  0
  8 10  1  0
 10 11  1  0
 11 12  1  0
 12 13  1  0
 13 14  2  0
 14 15  1  0
 15 16  2  0
 16 17  1  0
 17 18  2  0
  7  2  1  0
 18 13  1  0
M  END
>  <Title>  (890) 
idABGHgen14

$$$$

     RDKit          2D

 14 14  0  0  0  0  0  0  0  0999 V2000
    9.7500    1.2990    0.0000 C   0  0  0  0  0  0  0  0  0  0  0  0
    8.2500    1.2990    0.0000 C   0  0  0  0  0  0  0  0  0  0  0  0
    7.5000   -0.0000    0.0000 C   0  0  0  0  0  0  0  0  0  0  0  0
    6.0000    0.0000    0.0000 C   0  0  0  0  0  0  0  0  0  0  0  0
    5.2500   -1.2990    0.0000 C   0  0  0  0  0  0  0  0  0  0  0  0
    6.0000   -2.5981    0.0000 C   0  0  0  0  0  0  0  0  0  0  0  0
    3.7500   -1.2990    0.0000 N   0  0  0  0  0  0  0  0  0  0  0  0
    3.0000    0.0000    0.0000 C   0  0  0  0  0  0  0  0  0  0  0  0
    1.5000    0.0000    0.0000 C   0  0  0  0  0  0  0  0  0  0  0  0
    0.7500   -1.2990    0.0000 C   0  0  0  0  0  0  0  0  0  0  0  0
   -0.7500   -1.2990    0.0000 C   0  0  0  0  0  0  0  0  0  0  0  0
   -1.5000    0.0000    0.0000 C   0  0  0  0  0  0  0  0  0  0  0  0
   -0.7500    1.2990    0.0000 N   0  0  0  0  0  0  0  0  0  0  0  0
    0.7500    1.2990    0.0000 C   0  0  0  0  0  0  0  0  0  0  0  0
  1  2  2  0
  2  3  1  0
  3  4  1  0
  4  5  1  0
  5  6  1  0
  5  7  1  0
  7  8  1  0
  8  9  1  0
  9 10  2  0
 10 11  1  0
 11 12  2  0
 12 13  1  0
 13 14  2  0
 14  9  1  0
M  END
>  <Title>  (891) 
idABGIgen14

$$$$

     RDKit          2D

 14 15  0  0  0  0  0  0  0  0999 V2000
    3.2286   -0.0000    0.0000 C   0  0  0  0  0  0  0  0  0  0  0  0
    1.7286    0.0000    0.0000 C   0  0  0  0  0  0  0  0  0  0  0  0
    1.0777    1.3515    0.0000 C   0  0  0  0  0  0  0  0  0  0  0  0
   -0.3846    1.6852    0.0000 C   0  0  0  0  0  0  0  0  0  0  0  0
   -1.5574    0.7500    0.0000 C   0  0  0  0  0  0  0  0  0  0  0  0
   -2.9088    1.4008    0.0000 N   0  0  0  0  0  0  0  0  0  0  0  0
   -3.0209    2.8966    0.0000 C   0  0  0  0  0  0  0  0  0  0  0  0
   -4.3724    3.5475    0.0000 C   0  0  0  0  0  0  0  0  0  0  0  0
   -5.6118    2.7025    0.0000 N   0  0  0  0  0  0  0  0  0  0  0  0
   -5.4997    1.2067    0.0000 N   0  0  0  0  0  0  0  0  0  0  0  0
   -4.1482    0.5558    0.0000 N   0  0  0  0  0  0  0  0  0  0  0  0
   -1.5574   -0.7500    0.0000 C   0  0  0  0  0  0  0  0  0  0  0  0
   -0.3846   -1.6852    0.0000 C   0  0  0  0  0  0  0  0  0  0  0  0
    1.0777   -1.3515    0.0000 C   0  0  0  0  0  0  0  0  0  0  0  0
  1  2  1  0
  2  3  2  0
  3  4  1  0
  4  5  2  0
  5  6  1  0
  6  7  1  0
  7  8  1  0
  8  9  2  0
  9 10  1  0
 10 11  2  0
  5 12  1  0
 12 13  1  0
 13 14  2  0
 14  2  1  0
 11  6  1  0
M  END
>  <Title>  (892) 
idABGJgen14

$$$$

     RDKit          2D

 36 40  0  0  0  0  0  0  0  0999 V2000
   -3.1476   -2.1380    0.0000 C   0  0  0  0  0  0  0  0  0  0  0  0
   -1.6852   -2.4718    0.0000 C   0  0  0  0  0  0  0  0  0  0  0  0
   -1.3515   -3.9342    0.0000 C   0  0  0  0  0  0  0  0  0  0  0  0
   -0.0000   -4.5850    0.0000 C   0  0  0  0  0  0  0  0  0  0  0  0
    1.3515   -3.9342    0.0000 C   0  0  0  0  0  0  0  0  0  0  0  0
    1.6852   -2.4718    0.0000 C   0  0  0  0  0  0  0  0  0  0  0  0
    3.1476   -2.1380    0.0000 C   0  0  0  0  0  0  0  0  0  0  0  0
    3.5898   -0.7046    0.0000 O   0  0  0  0  0  0  0  0  0  0  0  0
    4.1679   -3.2376    0.0000 N   0  0  0  0  0  0  0  0  0  0  0  0
    5.6303   -2.9038    0.0000 C   0  0  0  0  0  0  0  0  0  0  0  0
    6.2198   -1.5245    0.0000 N   0  0  0  0  0  0  0  0  0  0  0  0
    7.7138   -1.6590    0.0000 N   0  0  0  0  0  0  0  0  0  0  0  0
    8.0476   -3.1214    0.0000 N   0  0  0  0  0  0  0  0  0  0  0  0
    6.7599   -3.8907    0.0000 N   0  0  0  0  0  0  0  0  0  0  0  0
    6.6254   -5.3847    0.0000 C   0  0  0  0  0  0  0  0  0  0  0  0
    7.7550   -6.3716    0.0000 C   0  0  0  0  0  0  0  0  0  0  0  0
    7.1655   -7.7509    0.0000 C   0  0  0  0  0  0  0  0  0  0  0  0
    5.6715   -7.6164    0.0000 C   0  0  0  0  0  0  0  0  0  0  0  0
    4.6846   -8.7460    0.0000 O   0  0  0  0  0  0  0  0  0  0  0  0
    3.2129   -8.4561    0.0000 C   0  0  0  0  0  0  0  0  0  0  0  0
    2.7281   -7.0366    0.0000 O   0  0  0  0  0  0  0  0  0  0  0  0
    2.2260   -9.5857    0.0000 N   0  0  0  0  0  0  0  0  0  0  0  0
    0.7543   -9.2959    0.0000 C   0  0  0  0  0  0  0  0  0  0  0  0
    0.2695   -7.8764    0.0000 N   0  0  0  0  0  0  0  0  0  0  0  0
   -1.2023   -7.5865    0.0000 N   0  0  0  0  0  0  0  0  0  0  0  0
   -2.1892   -8.7161    0.0000 N   0  0  0  0  0  0  0  0  0  0  0  0
   -1.7044  -10.1356    0.0000 N   0  0  0  0  0  0  0  0  0  0  0  0
   -0.2326  -10.4255    0.0000 N   0  0  0  0  0  0  0  0  0  0  0  0
    5.3378   -6.1540    0.0000 C   0  0  0  0  0  0  0  0  0  0  0  0
    3.9585   -5.5645    0.0000 O   0  0  0  0  0  0  0  0  0  0  0  0
    0.7500   -1.2990    0.0000 C   0  0  0  0  0  0  0  0  0  0  0  0
    1.5000    0.0000    0.0000 C   0  0  0  0  0  0  0  0  0  0  0  0
    0.7500    1.2990    0.0000 C   0  0  0  0  0  0  0  0  0  0  0  0
   -0.7500    1.2990    0.0000 C   0  0  0  0  0  0  0  0  0  0  0  0
   -1.5000    0.0000    0.0000 C   0  0  0  0  0  0  0  0  0  0  0  0
   -0.7500   -1.2990    0.0000 C   0  0  0  0  0  0  0  0  0  0  0  0
  1  2  1  0
  2  3  1  0
  3  4  1  0
  4  5  1  0
  5  6  1  0
  6  7  1  0
  7  8  2  0
  7  9  1  0
  9 10  1  0
 10 11  2  0
 11 12  1  0
 12 13  2  0
 13 14  1  0
 14 15  1  0
 15 16  2  0
 16 17  1  0
 17 18  2  0
 18 19  1  0
 19 20  1  0
 20 21  2  0
 20 22  1  0
 22 23  1  0
 23 24  2  0
 24 25  1  0
 25 26  2  0
 26 27  1  0
 27 28  2  0
 18 29  1  0
 29 30  2  0
  6 31  1  0
 31 32  2  0
 32 33  1  0
 33 34  2  0
 34 35  1  0
 35 36  2  0
 36  2  1  0
 14 10  1  0
 29 15  1  0
 36 31  1  0
 28 23  1  0
M  END
>  <Title>  (893) 
idABGKgen14

$$$$

     RDKit          2D

  7  6  0  0  0  0  0  0  0  0999 V2000
    0.0000    0.0000    0.0000 C   0  0  0  0  0  0  0  0  0  0  0  0
    1.2990    0.7500    0.0000 C   0  0  0  0  0  0  0  0  0  0  0  0
    2.5981   -0.0000    0.0000 C   0  0  0  0  0  0  0  0  0  0  0  0
    3.8971    0.7500    0.0000 C   0  0  0  0  0  0  0  0  0  0  0  0
    5.1962   -0.0000    0.0000 C   0  0  0  0  0  0  0  0  0  0  0  0
    6.4952    0.7500    0.0000 C   0  0  0  0  0  0  0  0  0  0  0  0
    5.1962   -1.5000    0.0000 O   0  0  0  0  0  0  0  0  0  0  0  0
  1  2  2  0
  2  3  1  0
  3  4  1  0
  4  5  1  0
  5  6  1  0
  5  7  1  0
M  END
>  <Title>  (894) 
idABGLgen14

$$$$

     RDKit          2D

 15 15  0  0  0  0  0  0  0  0999 V2000
    9.7500   -3.8971    0.0000 C   0  0  0  0  0  0  0  0  0  0  0  0
    8.2500   -3.8971    0.0000 C   0  0  0  0  0  0  0  0  0  0  0  0
    7.5000   -5.1962    0.0000 C   0  0  0  0  0  0  0  0  0  0  0  0
    7.5000   -2.5981    0.0000 C   0  0  0  0  0  0  0  0  0  0  0  0
    6.0000   -2.5981    0.0000 C   0  0  0  0  0  0  0  0  0  0  0  0
    5.2500   -3.8971    0.0000 O   0  0  0  0  0  0  0  0  0  0  0  0
    5.2500   -1.2990    0.0000 N   0  0  0  0  0  0  0  0  0  0  0  0
    3.7500   -1.2990    0.0000 C   0  0  0  0  0  0  0  0  0  0  0  0
    3.0000    0.0000    0.0000 C   0  0  0  0  0  0  0  0  0  0  0  0
    1.5000    0.0000    0.0000 C   0  0  0  0  0  0  0  0  0  0  0  0
    0.7500   -1.2990    0.0000 C   0  0  0  0  0  0  0  0  0  0  0  0
   -0.7500   -1.2990    0.0000 C   0  0  0  0  0  0  0  0  0  0  0  0
   -1.5000    0.0000    0.0000 C   0  0  0  0  0  0  0  0  0  0  0  0
   -0.7500    1.2990    0.0000 N   0  0  0  0  0  0  0  0  0  0  0  0
    0.7500    1.2990    0.0000 C   0  0  0  0  0  0  0  0  0  0  0  0
  1  2  1  0
  2  3  1  0
  2  4  1  0
  4  5  1  0
  5  6  2  0
  5  7  1  0
  7  8  1  0
  8  9  1  0
  9 10  1  0
 10 11  2  0
 11 12  1  0
 12 13  2  0
 13 14  1  0
 14 15  2  0
 15 10  1  0
M  END
>  <Title>  (895) 
idABGMgen14

$$$$

     RDKit          2D

 25 24  0  0  0  0  0  0  0  0999 V2000
    0.0000    0.0000    0.0000 C   0  0  0  0  0  0  0  0  0  0  0  0
   -0.0000   -1.5000    0.0000 C   0  0  0  0  0  0  0  0  0  0  0  0
   -0.0000   -3.0000    0.0000 C   0  0  0  0  0  0  0  0  0  0  0  0
   -0.0000   -4.5000    0.0000 C   0  0  0  0  0  0  0  0  0  0  0  0
   -0.0000   -6.0000    0.0000 C   0  0  0  0  0  0  0  0  0  0  0  0
   -0.0000   -7.5000    0.0000 C   0  0  0  0  0  0  0  0  0  0  0  0
   -0.0000   -9.0000    0.0000 C   0  0  0  0  0  0  0  0  0  0  0  0
   -0.0000  -10.5000    0.0000 C   0  0  0  0  0  0  0  0  0  0  0  0
   -0.0000  -12.0000    0.0000 C   0  0  0  0  0  0  0  0  0  0  0  0
   -0.0000  -13.5000    0.0000 C   0  0  0  0  0  0  0  0  0  0  0  0
   -0.0000  -15.0000    0.0000 C   0  0  0  0  0  0  0  0  0  0  0  0
    1.2990  -15.7500    0.0000 C   0  0  0  0  0  0  0  0  0  0  0  0
    1.2990  -17.2500    0.0000 C   0  0  0  0  0  0  0  0  0  0  0  0
    1.2990  -18.7500    0.0000 C   0  0  0  0  0  0  0  0  0  0  0  0
    1.2990  -20.2500    0.0000 C   0  0  0  0  0  0  0  0  0  0  0  0
    1.2990  -21.7500    0.0000 C   0  0  0  0  0  0  0  0  0  0  0  0
    1.2990  -23.2500    0.0000 C   0  0  0  0  0  0  0  0  0  0  0  0
    1.2990  -24.7500    0.0000 C   0  0  0  0  0  0  0  0  0  0  0  0
    1.2990  -26.2500    0.0000 C   0  0  0  0  0  0  0  0  0  0  0  0
    1.2990  -27.7500    0.0000 C   0  0  0  0  0  0  0  0  0  0  0  0
    1.2990  -29.2500    0.0000 C   0  0  0  0  0  0  0  0  0  0  0  0
    1.2990  -30.7500    0.0000 C   0  0  0  0  0  0  0  0  0  0  0  0
    1.2990  -32.2500    0.0000 C   0  0  0  0  0  0  0  0  0  0  0  0
    2.5981  -33.0000    0.0000 C   0  0  0  0  0  0  0  0  0  0  0  0
   -0.0000  -33.0000    0.0000 C   0  0  0  0  0  0  0  0  0  0  0  0
  1  2  3  0
  2  3  1  0
  3  4  3  0
  4  5  1  0
  5  6  3  0
  6  7  1  0
  7  8  3  0
  8  9  1  0
  9 10  3  0
 10 11  1  0
 11 12  2  3
 12 13  1  0
 13 14  3  0
 14 15  1  0
 15 16  3  0
 16 17  1  0
 17 18  3  0
 18 19  1  0
 19 20  3  0
 20 21  1  0
 21 22  3  0
 22 23  1  0
 23 24  1  0
 23 25  1  0
M  END
>  <Title>  (896) 
idABGNgen14

$$$$

     RDKit          2D

  6  5  0  0  0  0  0  0  0  0999 V2000
    0.0000    0.0000    0.0000 C   0  0  0  0  0  0  0  0  0  0  0  0
    1.2990    0.7500    0.0000 C   0  0  0  0  0  0  0  0  0  0  0  0
    2.5981   -0.0000    0.0000 C   0  0  0  0  0  0  0  0  0  0  0  0
    3.8971    0.7500    0.0000 C   0  0  0  0  0  0  0  0  0  0  0  0
    5.1962   -0.0000    0.0000 C   0  0  0  0  0  0  0  0  0  0  0  0
    6.4952    0.7500    0.0000 C   0  0  0  0  0  0  0  0  0  0  0  0
  1  2  2  0
  2  3  1  0
  3  4  1  0
  4  5  2  3
  5  6  1  0
M  END
>  <Title>  (897) 
idABGOgen14

$$$$

     RDKit          2D

  6  5  0  0  0  0  0  0  0  0999 V2000
    0.0000    0.0000    0.0000 C   0  0  0  0  0  0  0  0  0  0  0  0
    1.2990    0.7500    0.0000 C   0  0  0  0  0  0  0  0  0  0  0  0
    2.5981   -0.0000    0.0000 C   0  0  0  0  0  0  0  0  0  0  0  0
    3.8971    0.7500    0.0000 C   0  0  0  0  0  0  0  0  0  0  0  0
    5.1962   -0.0000    0.0000 C   0  0  0  0  0  0  0  0  0  0  0  0
    3.8971    2.2500    0.0000 C   0  0  0  0  0  0  0  0  0  0  0  0
  1  2  2  0
  2  3  1  0
  3  4  1  0
  4  5  1  0
  4  6  1  0
M  END
>  <Title>  (898) 
idABGPgen14

$$$$

     RDKit          2D

 11 11  0  0  0  0  0  0  0  0999 V2000
    6.0000   -2.5981    0.0000 C   0  0  0  0  0  0  0  0  0  0  0  0
    5.2500   -1.2990    0.0000 C   0  0  0  0  0  0  0  0  0  0  0  0
    3.7500   -1.2990    0.0000 C   0  0  0  0  0  0  0  0  0  0  0  0
    3.0000   -2.5981    0.0000 O   0  0  0  0  0  0  0  0  0  0  0  0
    3.0000    0.0000    0.0000 N   0  0  0  0  0  0  0  0  0  0  0  0
    1.5000    0.0000    0.0000 C   0  0  0  0  0  0  0  0  0  0  0  0
    0.7500   -1.2990    0.0000 C   0  0  0  0  0  0  0  0  0  0  0  0
   -0.7500   -1.2990    0.0000 S   0  0  0  0  0  0  0  0  0  0  0  0
   -1.5000    0.0000    0.0000 C   0  0  0  0  0  0  0  0  0  0  0  0
   -0.7500    1.2990    0.0000 C   0  0  0  0  0  0  0  0  0  0  0  0
    0.7500    1.2990    0.0000 C   0  0  0  0  0  0  0  0  0  0  0  0
  1  2  1  0
  2  3  1  0
  3  4  1  0
  3  5  1  0
  5  6  1  0
  6  7  2  0
  7  8  1  0
  8  9  1  0
  9 10  1  0
 10 11  2  0
 11  6  1  0
M  END
>  <Title>  (899) 
idABGQgen14

$$$$

     RDKit          2D

 11 10  0  0  0  0  0  0  0  0999 V2000
    0.0000    0.0000    0.0000 C   0  0  0  0  0  0  0  0  0  0  0  0
    1.2990    0.7500    0.0000 C   0  0  0  0  0  0  0  0  0  0  0  0
    2.5981   -0.0000    0.0000 C   0  0  0  0  0  0  0  0  0  0  0  0
    3.8971    0.7500    0.0000 C   0  0  0  0  0  0  0  0  0  0  0  0
    2.5981   -1.5000    0.0000 C   0  0  0  0  0  0  0  0  0  0  0  0
    3.8971   -2.2500    0.0000 C   0  0  0  0  0  0  0  0  0  0  0  0
    3.8971   -3.7500    0.0000 C   0  0  0  0  0  0  0  0  0  0  0  0
    5.1962   -1.5000    0.0000 N   0  0  0  0  0  0  0  0  0  0  0  0
    6.4952   -2.2500    0.0000 C   0  0  0  0  0  0  0  0  0  0  0  0
    7.7942   -1.5000    0.0000 C   0  0  0  0  0  0  0  0  0  0  0  0
    6.4952   -3.7500    0.0000 O   0  0  0  0  0  0  0  0  0  0  0  0
  1  2  1  0
  2  3  1  0
  3  4  1  0
  3  5  1  0
  5  6  1  0
  6  7  1  0
  6  8  1  0
  8  9  1  0
  9 10  1  0
  9 11  2  0
M  END
>  <Title>  (900) 
idABGRgen14

$$$$

     RDKit          2D

 98 99  0  0  0  0  0  0  0  0999 V2000
   -2.1682   -1.0830    0.0000 C   0  0  0  0  0  0  0  0  0  0  0  0
   -2.4866    0.3828    0.0000 C   0  0  0  0  0  0  0  0  0  0  0  0
   -3.9623    0.1136    0.0000 C   0  0  0  0  0  0  0  0  0  0  0  0
   -5.4526   -0.0565    0.0000 C   0  0  0  0  0  0  0  0  0  0  0  0
   -6.9510   -0.1267    0.0000 C   0  0  0  0  0  0  0  0  0  0  0  0
   -8.4507   -0.0966    0.0000 C   0  0  0  0  0  0  0  0  0  0  0  0
   -9.9450    0.0336    0.0000 C   0  0  0  0  0  0  0  0  0  0  0  0
  -11.4273    0.2633    0.0000 C   0  0  0  0  0  0  0  0  0  0  0  0
  -12.8910    0.5915    0.0000 C   0  0  0  0  0  0  0  0  0  0  0  0
  -14.3294    1.0167    0.0000 C   0  0  0  0  0  0  0  0  0  0  0  0
  -15.7363    1.5370    0.0000 C   0  0  0  0  0  0  0  0  0  0  0  0
  -17.1052    2.1502    0.0000 C   0  0  0  0  0  0  0  0  0  0  0  0
  -18.4302    2.8534    0.0000 C   0  0  0  0  0  0  0  0  0  0  0  0
  -19.7052    3.6436    0.0000 C   0  0  0  0  0  0  0  0  0  0  0  0
  -20.9246    4.5171    0.0000 C   0  0  0  0  0  0  0  0  0  0  0  0
  -22.0829    5.4701    0.0000 C   0  0  0  0  0  0  0  0  0  0  0  0
  -23.1750    6.4984    0.0000 C   0  0  0  0  0  0  0  0  0  0  0  0
  -24.1960    7.5974    0.0000 C   0  0  0  0  0  0  0  0  0  0  0  0
  -25.1412    8.7620    0.0000 C   0  0  0  0  0  0  0  0  0  0  0  0
  -26.0066    9.9872    0.0000 C   0  0  0  0  0  0  0  0  0  0  0  0
  -26.7882   11.2675    0.0000 C   0  0  0  0  0  0  0  0  0  0  0  0
  -27.4826   12.5971    0.0000 C   0  0  0  0  0  0  0  0  0  0  0  0
  -28.0866   13.9701    0.0000 C   0  0  0  0  0  0  0  0  0  0  0  0
  -28.5975   15.3804    0.0000 C   0  0  0  0  0  0  0  0  0  0  0  0
  -29.0131   16.8217    0.0000 C   0  0  0  0  0  0  0  0  0  0  0  0
  -29.3315   18.2875    0.0000 C   0  0  0  0  0  0  0  0  0  0  0  0
  -29.5513   19.7713    0.0000 C   0  0  0  0  0  0  0  0  0  0  0  0
  -29.6715   21.2665    0.0000 C   0  0  0  0  0  0  0  0  0  0  0  0
  -29.6915   22.7664    0.0000 C   0  0  0  0  0  0  0  0  0  0  0  0
  -29.6114   24.2642    0.0000 C   0  0  0  0  0  0  0  0  0  0  0  0
  -29.4313   25.7534    0.0000 C   0  0  0  0  0  0  0  0  0  0  0  0
  -29.1522   27.2272    0.0000 C   0  0  0  0  0  0  0  0  0  0  0  0
  -28.7753   28.6791    0.0000 C   0  0  0  0  0  0  0  0  0  0  0  0
  -28.3022   30.1025    0.0000 C   0  0  0  0  0  0  0  0  0  0  0  0
  -27.7352   31.4912    0.0000 C   0  0  0  0  0  0  0  0  0  0  0  0
  -27.0766   32.8389    0.0000 C   0  0  0  0  0  0  0  0  0  0  0  0
  -26.3295   34.1396    0.0000 C   0  0  0  0  0  0  0  0  0  0  0  0
  -25.4972   35.3875    0.0000 C   0  0  0  0  0  0  0  0  0  0  0  0
  -24.5834   36.5770    0.0000 C   0  0  0  0  0  0  0  0  0  0  0  0
  -23.5922   37.7029    0.0000 C   0  0  0  0  0  0  0  0  0  0  0  0
  -22.5280   38.7600    0.0000 C   0  0  0  0  0  0  0  0  0  0  0  0
  -21.3956   39.7436    0.0000 C   0  0  0  0  0  0  0  0  0  0  0  0
  -20.1999   40.6495    0.0000 C   0  0  0  0  0  0  0  0  0  0  0  0
  -18.9465   41.4734    0.0000 C   0  0  0  0  0  0  0  0  0  0  0  0
  -17.6408   42.2118    0.0000 C   0  0  0  0  0  0  0  0  0  0  0  0
  -16.2888   42.8614    0.0000 C   0  0  0  0  0  0  0  0  0  0  0  0
  -14.8963   43.4191    0.0000 C   0  0  0  0  0  0  0  0  0  0  0  0
  -13.4697   43.8827    0.0000 C   0  0  0  0  0  0  0  0  0  0  0  0
  -12.0154   44.2499    0.0000 C   0  0  0  0  0  0  0  0  0  0  0  0
  -10.5397   44.5191    0.0000 C   0  0  0  0  0  0  0  0  0  0  0  0
   -9.0494   44.6892    0.0000 C   0  0  0  0  0  0  0  0  0  0  0  0
   -7.5511   44.7593    0.0000 C   0  0  0  0  0  0  0  0  0  0  0  0
   -6.0514   44.7293    0.0000 C   0  0  0  0  0  0  0  0  0  0  0  0
   -4.5570   44.5991    0.0000 C   0  0  0  0  0  0  0  0  0  0  0  0
   -3.0747   44.3694    0.0000 C   0  0  0  0  0  0  0  0  0  0  0  0
   -1.6111   44.0412    0.0000 C   0  0  0  0  0  0  0  0  0  0  0  0
   -0.1726   43.6160    0.0000 C   0  0  0  0  0  0  0  0  0  0  0  0
    1.2343   43.0956    0.0000 C   0  0  0  0  0  0  0  0  0  0  0  0
    2.6032   42.4825    0.0000 C   0  0  0  0  0  0  0  0  0  0  0  0
    3.9282   41.7792    0.0000 C   0  0  0  0  0  0  0  0  0  0  0  0
    5.2032   40.9891    0.0000 C   0  0  0  0  0  0  0  0  0  0  0  0
    6.4226   40.1156    0.0000 C   0  0  0  0  0  0  0  0  0  0  0  0
    7.5809   39.1625    0.0000 C   0  0  0  0  0  0  0  0  0  0  0  0
    8.6730   38.1342    0.0000 C   0  0  0  0  0  0  0  0  0  0  0  0
    9.6939   37.0353    0.0000 C   0  0  0  0  0  0  0  0  0  0  0  0
   10.6392   35.8706    0.0000 C   0  0  0  0  0  0  0  0  0  0  0  0
   11.5046   34.6454    0.0000 C   0  0  0  0  0  0  0  0  0  0  0  0
   12.2862   33.3652    0.0000 C   0  0  0  0  0  0  0  0  0  0  0  0
   12.9805   32.0355    0.0000 C   0  0  0  0  0  0  0  0  0  0  0  0
   13.5845   30.6625    0.0000 C   0  0  0  0  0  0  0  0  0  0  0  0
   14.0955   29.2522    0.0000 C   0  0  0  0  0  0  0  0  0  0  0  0
   14.5111   27.8109    0.0000 C   0  0  0  0  0  0  0  0  0  0  0  0
   14.8295   26.3451    0.0000 C   0  0  0  0  0  0  0  0  0  0  0  0
   15.0493   24.8613    0.0000 C   0  0  0  0  0  0  0  0  0  0  0  0
   15.1694   23.3661    0.0000 C   0  0  0  0  0  0  0  0  0  0  0  0
   15.1895   21.8663    0.0000 C   0  0  0  0  0  0  0  0  0  0  0  0
   15.1093   20.3684    0.0000 C   0  0  0  0  0  0  0  0  0  0  0  0
   14.9293   18.8793    0.0000 C   0  0  0  0  0  0  0  0  0  0  0  0
   14.6502   17.4055    0.0000 C   0  0  0  0  0  0  0  0  0  0  0  0
   14.2733   15.9536    0.0000 C   0  0  0  0  0  0  0  0  0  0  0  0
   13.8002   14.5301    0.0000 C   0  0  0  0  0  0  0  0  0  0  0  0
   13.2331   13.1415    0.0000 C   0  0  0  0  0  0  0  0  0  0  0  0
   12.5746   11.7937    0.0000 C   0  0  0  0  0  0  0  0  0  0  0  0
   11.8275   10.4930    0.0000 C   0  0  0  0  0  0  0  0  0  0  0  0
   10.9952    9.2451    0.0000 C   0  0  0  0  0  0  0  0  0  0  0  0
   10.0814    8.0556    0.0000 C   0  0  0  0  0  0  0  0  0  0  0  0
    9.0901    6.9298    0.0000 C   0  0  0  0  0  0  0  0  0  0  0  0
    8.0260    5.8727    0.0000 C   0  0  0  0  0  0  0  0  0  0  0  0
    6.8935    4.8890    0.0000 C   0  0  0  0  0  0  0  0  0  0  0  0
    5.6979    3.9832    0.0000 C   0  0  0  0  0  0  0  0  0  0  0  0
    4.4445    3.1592    0.0000 C   0  0  0  0  0  0  0  0  0  0  0  0
    3.1388    2.4208    0.0000 C   0  0  0  0  0  0  0  0  0  0  0  0
    1.7867    1.7713    0.0000 C   0  0  0  0  0  0  0  0  0  0  0  0
    0.3943    1.2135    0.0000 C   0  0  0  0  0  0  0  0  0  0  0  0
    1.2760    0.0000    0.0000 C   0  0  0  0  0  0  0  0  0  0  0  0
    0.3943   -1.2135    0.0000 C   0  0  0  0  0  0  0  0  0  0  0  0
   -1.0323   -0.7500    0.0000 C   0  0  0  0  0  0  0  0  0  0  0  0
   -1.0323    0.7500    0.0000 C   0  0  0  0  0  0  0  0  0  0  0  0
  1  2  1  0
  2  3  1  0
  3  4  1  0
  4  5  1  0
  5  6  1  0
  6  7  1  0
  7  8  1  0
  8  9  1  0
  9 10  1  0
 10 11  1  0
 11 12  1  0
 12 13  1  0
 13 14  1  0
 14 15  1  0
 15 16  1  0
 16 17  1  0
 17 18  1  0
 18 19  1  0
 19 20  1  0
 20 21  1  0
 21 22  1  0
 22 23  1  0
 23 24  1  0
 24 25  1  0
 25 26  1  0
 26 27  1  0
 27 28  1  0
 28 29  1  0
 29 30  1  0
 30 31  1  0
 31 32  1  0
 32 33  1  0
 33 34  1  0
 34 35  1  0
 35 36  1  0
 36 37  1  0
 37 38  1  0
 38 39  1  0
 39 40  1  0
 40 41  1  0
 41 42  1  0
 42 43  1  0
 43 44  1  0
 44 45  1  0
 45 46  1  0
 46 47  1  0
 47 48  1  0
 48 49  1  0
 49 50  1  0
 50 51  1  0
 51 52  1  0
 52 53  1  0
 53 54  1  0
 54 55  1  0
 55 56  1  0
 56 57  1  0
 57 58  1  0
 58 59  1  0
 59 60  1  0
 60 61  1  0
 61 62  1  0
 62 63  1  0
 63 64  1  0
 64 65  1  0
 65 66  1  0
 66 67  1  0
 67 68  2  0
 68 69  1  0
 69 70  2  0
 70 71  1  0
 71 72  2  0
 72 73  1  0
 73 74  2  0
 74 75  1  0
 75 76  2  0
 76 77  1  0
 77 78  2  0
 78 79  1  0
 79 80  2  0
 80 81  1  0
 81 82  2  0
 82 83  1  0
 83 84  2  0
 84 85  1  0
 85 86  2  0
 86 87  1  0
 87 88  2  0
 88 89  1  0
 89 90  2  0
 90 91  1  0
 91 92  2  0
 92 93  1  0
 93 94  2  0
 94 95  1  0
 95 96  2  0
 96 97  1  0
 97 98  2  0
 98  2  1  0
 98 94  1  0
M  END
>  <Title>  (901) 
idABGSgen14

$$$$

     RDKit          2D

  8  8  0  0  0  0  0  0  0  0999 V2000
    3.7500   -1.2990    0.0000 C   0  0  0  0  0  0  0  0  0  0  0  0
    3.0000    0.0000    0.0000 O   0  0  0  0  0  0  0  0  0  0  0  0
    1.5000    0.0000    0.0000 C   0  0  0  0  0  0  0  0  0  0  0  0
    0.7500   -1.2990    0.0000 C   0  0  0  0  0  0  0  0  0  0  0  0
   -0.7500   -1.2990    0.0000 C   0  0  0  0  0  0  0  0  0  0  0  0
   -1.5000    0.0000    0.0000 C   0  0  0  0  0  0  0  0  0  0  0  0
   -0.7500    1.2990    0.0000 N   0  0  0  0  0  0  0  0  0  0  0  0
    0.7500    1.2990    0.0000 C   0  0  0  0  0  0  0  0  0  0  0  0
  1  2  1  0
  2  3  1  0
  3  4  2  0
  4  5  1  0
  5  6  2  0
  6  7  1  0
  7  8  2  0
  8  3  1  0
M  END
>  <Title>  (902) 
idABGTgen14

$$$$

     RDKit          2D

 34 38  0  0  0  0  0  0  0  0999 V2000
   -3.1476   -2.1380    0.0000 C   0  0  0  0  0  0  0  0  0  0  0  0
   -1.6852   -2.4718    0.0000 C   0  0  0  0  0  0  0  0  0  0  0  0
   -1.3515   -3.9342    0.0000 C   0  0  0  0  0  0  0  0  0  0  0  0
   -0.0000   -4.5850    0.0000 C   0  0  0  0  0  0  0  0  0  0  0  0
    1.3515   -3.9342    0.0000 C   0  0  0  0  0  0  0  0  0  0  0  0
    1.6852   -2.4718    0.0000 C   0  0  0  0  0  0  0  0  0  0  0  0
    3.1476   -2.1380    0.0000 C   0  0  0  0  0  0  0  0  0  0  0  0
    3.5898   -0.7046    0.0000 O   0  0  0  0  0  0  0  0  0  0  0  0
    4.1679   -3.2376    0.0000 N   0  0  0  0  0  0  0  0  0  0  0  0
    5.6303   -2.9038    0.0000 C   0  0  0  0  0  0  0  0  0  0  0  0
    6.2198   -1.5245    0.0000 N   0  0  0  0  0  0  0  0  0  0  0  0
    7.7138   -1.6590    0.0000 N   0  0  0  0  0  0  0  0  0  0  0  0
    8.0476   -3.1214    0.0000 N   0  0  0  0  0  0  0  0  0  0  0  0
    6.7599   -3.8907    0.0000 N   0  0  0  0  0  0  0  0  0  0  0  0
    6.6254   -5.3847    0.0000 N   0  0  0  0  0  0  0  0  0  0  0  0
    5.4740   -6.3460    0.0000 C   0  0  0  0  0  0  0  0  0  0  0  0
    6.4353   -7.4975    0.0000 C   0  0  0  0  0  0  0  0  0  0  0  0
    6.3008   -8.9914    0.0000 C   0  0  0  0  0  0  0  0  0  0  0  0
    7.5274   -9.8548    0.0000 O   0  0  0  0  0  0  0  0  0  0  0  0
    4.9398   -9.6219    0.0000 N   0  0  0  0  0  0  0  0  0  0  0  0
    4.8053  -11.1159    0.0000 C   0  0  0  0  0  0  0  0  0  0  0  0
    3.4443  -11.7464    0.0000 N   0  0  0  0  0  0  0  0  0  0  0  0
    3.3098  -13.2404    0.0000 N   0  0  0  0  0  0  0  0  0  0  0  0
    4.5364  -14.1038    0.0000 N   0  0  0  0  0  0  0  0  0  0  0  0
    5.8974  -13.4733    0.0000 N   0  0  0  0  0  0  0  0  0  0  0  0
    6.0319  -11.9793    0.0000 N   0  0  0  0  0  0  0  0  0  0  0  0
    7.5867   -6.5361    0.0000 C   0  0  0  0  0  0  0  0  0  0  0  0
    9.0807   -6.6706    0.0000 O   0  0  0  0  0  0  0  0  0  0  0  0
    0.7500   -1.2990    0.0000 C   0  0  0  0  0  0  0  0  0  0  0  0
    1.5000    0.0000    0.0000 C   0  0  0  0  0  0  0  0  0  0  0  0
    0.7500    1.2990    0.0000 C   0  0  0  0  0  0  0  0  0  0  0  0
   -0.7500    1.2990    0.0000 C   0  0  0  0  0  0  0  0  0  0  0  0
   -1.5000    0.0000    0.0000 C   0  0  0  0  0  0  0  0  0  0  0  0
   -0.7500   -1.2990    0.0000 C   0  0  0  0  0  0  0  0  0  0  0  0
  1  2  1  0
  2  3  1  0
  3  4  1  0
  4  5  1  0
  5  6  1  0
  6  7  1  0
  7  8  2  0
  7  9  1  0
  9 10  1  0
 10 11  2  0
 11 12  1  0
 12 13  2  0
 13 14  1  0
 14 15  1  0
 15 16  1  0
 16 17  2  0
 17 18  1  0
 18 19  2  0
 18 20  1  0
 20 21  1  0
 21 22  2  0
 22 23  1  0
 23 24  2  0
 24 25  1  0
 25 26  2  0
 17 27  1  0
 27 28  2  0
  6 29  1  0
 29 30  2  0
 30 31  1  0
 31 32  2  0
 32 33  1  0
 33 34  2  0
 34  2  1  0
 14 10  1  0
 27 15  1  0
 34 29  1  0
 26 21  1  0
M  END
>  <Title>  (903) 
idABGUgen14

$$$$

     RDKit          2D

 21 23  0  0  0  0  0  0  0  0999 V2000
   -3.0000   -2.5981    0.0000 C   0  0  0  0  0  0  0  0  0  0  0  0
   -1.5000   -2.5981    0.0000 C   0  0  0  0  0  0  0  0  0  0  0  0
   -0.7500   -3.8971    0.0000 C   0  0  0  0  0  0  0  0  0  0  0  0
    0.7500   -3.8971    0.0000 C   0  0  0  0  0  0  0  0  0  0  0  0
    1.5000   -2.5981    0.0000 C   0  0  0  0  0  0  0  0  0  0  0  0
    3.0000   -2.5981    0.0000 C   0  0  0  0  0  0  0  0  0  0  0  0
    3.7500   -1.2990    0.0000 O   0  0  0  0  0  0  0  0  0  0  0  0
    3.7500   -3.8971    0.0000 N   0  0  0  0  0  0  0  0  0  0  0  0
    5.2500   -3.8971    0.0000 C   0  0  0  0  0  0  0  0  0  0  0  0
    6.0000   -5.1962    0.0000 N   0  0  0  0  0  0  0  0  0  0  0  0
    7.5000   -5.1962    0.0000 N   0  0  0  0  0  0  0  0  0  0  0  0
    8.2500   -3.8971    0.0000 N   0  0  0  0  0  0  0  0  0  0  0  0
    7.5000   -2.5981    0.0000 N   0  0  0  0  0  0  0  0  0  0  0  0
    6.0000   -2.5981    0.0000 N   0  0  0  0  0  0  0  0  0  0  0  0
    0.7500   -1.2990    0.0000 C   0  0  0  0  0  0  0  0  0  0  0  0
    1.5000    0.0000    0.0000 C   0  0  0  0  0  0  0  0  0  0  0  0
    0.7500    1.2990    0.0000 C   0  0  0  0  0  0  0  0  0  0  0  0
   -0.7500    1.2990    0.0000 C   0  0  0  0  0  0  0  0  0  0  0  0
   -1.5000    2.5981    0.0000 O   0  0  0  0  0  0  0  0  0  0  0  0
   -1.5000    0.0000    0.0000 C   0  0  0  0  0  0  0  0  0  0  0  0
   -0.7500   -1.2990    0.0000 C   0  0  0  0  0  0  0  0  0  0  0  0
  1  2  1  0
  2  3  1  0
  3  4  2  0
  4  5  1  0
  5  6  1  0
  6  7  2  0
  6  8  1  0
  8  9  1  0
  9 10  2  0
 10 11  1  0
 11 12  2  0
 12 13  1  0
 13 14  2  0
  5 15  1  0
 15 16  2  0
 16 17  1  0
 17 18  2  0
 18 19  1  0
 18 20  1  0
 20 21  2  0
 21  2  1  0
 14  9  1  0
 21 15  1  0
M  END
>  <Title>  (904) 
idABGVgen14

$$$$

     RDKit          2D

 37 41  0  0  0  0  0  0  0  0999 V2000
   -4.6100   -1.8042    0.0000 N   0  0  0  0  0  0  0  0  0  0  0  0
   -3.1476   -2.1380    0.0000 C   0  0  0  0  0  0  0  0  0  0  0  0
   -1.6852   -2.4718    0.0000 C   0  0  0  0  0  0  0  0  0  0  0  0
   -1.3515   -3.9342    0.0000 C   0  0  0  0  0  0  0  0  0  0  0  0
   -0.0000   -4.5850    0.0000 C   0  0  0  0  0  0  0  0  0  0  0  0
    1.3515   -3.9342    0.0000 C   0  0  0  0  0  0  0  0  0  0  0  0
    1.6852   -2.4718    0.0000 C   0  0  0  0  0  0  0  0  0  0  0  0
    3.1476   -2.1380    0.0000 C   0  0  0  0  0  0  0  0  0  0  0  0
    3.5898   -0.7046    0.0000 O   0  0  0  0  0  0  0  0  0  0  0  0
    4.1679   -3.2376    0.0000 N   0  0  0  0  0  0  0  0  0  0  0  0
    5.6303   -2.9038    0.0000 C   0  0  0  0  0  0  0  0  0  0  0  0
    6.2198   -1.5245    0.0000 N   0  0  0  0  0  0  0  0  0  0  0  0
    7.7138   -1.6590    0.0000 N   0  0  0  0  0  0  0  0  0  0  0  0
    8.0476   -3.1214    0.0000 N   0  0  0  0  0  0  0  0  0  0  0  0
    6.7599   -3.8907    0.0000 N   0  0  0  0  0  0  0  0  0  0  0  0
    6.6254   -5.3847    0.0000 C   0  0  0  0  0  0  0  0  0  0  0  0
    7.7550   -6.3716    0.0000 C   0  0  0  0  0  0  0  0  0  0  0  0
    7.1655   -7.7509    0.0000 C   0  0  0  0  0  0  0  0  0  0  0  0
    5.6715   -7.6164    0.0000 C   0  0  0  0  0  0  0  0  0  0  0  0
    4.6846   -8.7460    0.0000 O   0  0  0  0  0  0  0  0  0  0  0  0
    3.2129   -8.4561    0.0000 C   0  0  0  0  0  0  0  0  0  0  0  0
    2.7281   -7.0366    0.0000 O   0  0  0  0  0  0  0  0  0  0  0  0
    2.2260   -9.5857    0.0000 N   0  0  0  0  0  0  0  0  0  0  0  0
    0.7543   -9.2959    0.0000 C   0  0  0  0  0  0  0  0  0  0  0  0
    0.2695   -7.8764    0.0000 N   0  0  0  0  0  0  0  0  0  0  0  0
   -1.2023   -7.5865    0.0000 N   0  0  0  0  0  0  0  0  0  0  0  0
   -2.1892   -8.7161    0.0000 N   0  0  0  0  0  0  0  0  0  0  0  0
   -1.7044  -10.1356    0.0000 N   0  0  0  0  0  0  0  0  0  0  0  0
   -0.2326  -10.4255    0.0000 N   0  0  0  0  0  0  0  0  0  0  0  0
    5.3378   -6.1540    0.0000 C   0  0  0  0  0  0  0  0  0  0  0  0
    3.9585   -5.5645    0.0000 O   0  0  0  0  0  0  0  0  0  0  0  0
    0.7500   -1.2990    0.0000 C   0  0  0  0  0  0  0  0  0  0  0  0
    1.5000    0.0000    0.0000 C   0  0  0  0  0  0  0  0  0  0  0  0
    0.7500    1.2990    0.0000 C   0  0  0  0  0  0  0  0  0  0  0  0
   -0.7500    1.2990    0.0000 C   0  0  0  0  0  0  0  0  0  0  0  0
   -1.5000    0.0000    0.0000 C   0  0  0  0  0  0  0  0  0  0  0  0
   -0.7500   -1.2990    0.0000 C   0  0  0  0  0  0  0  0  0  0  0  0
  1  2  3  0
  2  3  1  0
  3  4  1  0
  4  5  2  0
  5  6  1  0
  6  7  2  0
  7  8  1  0
  8  9  2  0
  8 10  1  0
 10 11  1  0
 11 12  2  0
 12 13  1  0
 13 14  2  0
 14 15  1  0
 15 16  1  0
 16 17  2  0
 17 18  1  0
 18 19  2  0
 19 20  1  0
 20 21  1  0
 21 22  2  0
 21 23  1  0
 23 24  1  0
 24 25  2  0
 25 26  1  0
 26 27  2  0
 27 28  1  0
 28 29  2  0
 19 30  1  0
 30 31  2  0
  7 32  1  0
 32 33  2  0
 33 34  1  0
 34 35  2  0
 35 36  1  0
 36 37  2  0
 37  3  1  0
 15 11  1  0
 30 16  1  0
 37 32  1  0
 29 24  1  0
M  END
>  <Title>  (905) 
idABGWgen14

$$$$

     RDKit          2D

 42 47  0  0  0  0  0  0  0  0999 V2000
   -2.3737   -6.1885    0.0000 C   0  0  0  0  0  0  0  0  0  0  0  0
   -1.4095   -5.0395    0.0000 C   0  0  0  0  0  0  0  0  0  0  0  0
   -0.0000   -5.5525    0.0000 C   0  0  0  0  0  0  0  0  0  0  0  0
    1.4095   -5.0395    0.0000 C   0  0  0  0  0  0  0  0  0  0  0  0
    2.1595   -3.7404    0.0000 C   0  0  0  0  0  0  0  0  0  0  0  0
    1.8991   -2.2632    0.0000 C   0  0  0  0  0  0  0  0  0  0  0  0
    3.1981   -1.5132    0.0000 C   0  0  0  0  0  0  0  0  0  0  0  0
    3.1981   -0.0132    0.0000 O   0  0  0  0  0  0  0  0  0  0  0  0
    4.4971   -2.2632    0.0000 N   0  0  0  0  0  0  0  0  0  0  0  0
    5.7962   -1.5132    0.0000 C   0  0  0  0  0  0  0  0  0  0  0  0
    5.9530   -0.0214    0.0000 N   0  0  0  0  0  0  0  0  0  0  0  0
    7.4202    0.2904    0.0000 N   0  0  0  0  0  0  0  0  0  0  0  0
    8.1702   -1.0086    0.0000 N   0  0  0  0  0  0  0  0  0  0  0  0
    7.1665   -2.1233    0.0000 N   0  0  0  0  0  0  0  0  0  0  0  0
    7.4784   -3.5905    0.0000 N   0  0  0  0  0  0  0  0  0  0  0  0
    8.8487   -4.2007    0.0000 C   0  0  0  0  0  0  0  0  0  0  0  0
    8.6919   -5.6924    0.0000 C   0  0  0  0  0  0  0  0  0  0  0  0
    7.2247   -6.0043    0.0000 N   0  0  0  0  0  0  0  0  0  0  0  0
    6.6146   -7.3746    0.0000 C   0  0  0  0  0  0  0  0  0  0  0  0
    7.4962   -8.5881    0.0000 O   0  0  0  0  0  0  0  0  0  0  0  0
    5.1228   -7.5314    0.0000 N   0  0  0  0  0  0  0  0  0  0  0  0
    4.5127   -8.9017    0.0000 C   0  0  0  0  0  0  0  0  0  0  0  0
    3.0209   -9.0585    0.0000 N   0  0  0  0  0  0  0  0  0  0  0  0
    2.4108  -10.4288    0.0000 N   0  0  0  0  0  0  0  0  0  0  0  0
    3.2925  -11.6424    0.0000 N   0  0  0  0  0  0  0  0  0  0  0  0
    4.7843  -11.4856    0.0000 N   0  0  0  0  0  0  0  0  0  0  0  0
    5.3944  -10.1153    0.0000 N   0  0  0  0  0  0  0  0  0  0  0  0
    6.4747   -4.7053    0.0000 C   0  0  0  0  0  0  0  0  0  0  0  0
    4.9829   -4.5485    0.0000 O   0  0  0  0  0  0  0  0  0  0  0  0
    0.7500   -1.2990    0.0000 C   0  0  0  0  0  0  0  0  0  0  0  0
    1.5000    0.0000    0.0000 C   0  0  0  0  0  0  0  0  0  0  0  0
    0.7500    1.2990    0.0000 C   0  0  0  0  0  0  0  0  0  0  0  0
   -0.7500    1.2990    0.0000 C   0  0  0  0  0  0  0  0  0  0  0  0
   -1.5000    0.0000    0.0000 C   0  0  0  0  0  0  0  0  0  0  0  0
   -0.7500   -1.2990    0.0000 C   0  0  0  0  0  0  0  0  0  0  0  0
   -1.8991   -2.2632    0.0000 C   0  0  0  0  0  0  0  0  0  0  0  0
   -3.0481   -1.2990    0.0000 C   0  0  0  0  0  0  0  0  0  0  0  0
   -4.4577   -1.8121    0.0000 C   0  0  0  0  0  0  0  0  0  0  0  0
   -4.7181   -3.2893    0.0000 C   0  0  0  0  0  0  0  0  0  0  0  0
   -6.1277   -3.8023    0.0000 O   0  0  0  0  0  0  0  0  0  0  0  0
   -3.5691   -4.2535    0.0000 C   0  0  0  0  0  0  0  0  0  0  0  0
   -2.1595   -3.7404    0.0000 C   0  0  0  0  0  0  0  0  0  0  0  0
  1  2  1  0
  2  3  2  0
  3  4  1  0
  4  5  1  0
  5  6  2  0
  6  7  1  0
  7  8  2  0
  7  9  1  0
  9 10  1  0
 10 11  2  0
 11 12  1  0
 12 13  2  0
 13 14  1  0
 14 15  1  0
 15 16  1  0
 16 17  1  0
 17 18  1  0
 18 19  1  0
 19 20  2  0
 19 21  1  0
 21 22  1  0
 22 23  2  0
 23 24  1  0
 24 25  2  0
 25 26  1  0
 26 27  2  0
 18 28  1  0
 28 29  2  0
  6 30  1  0
 30 31  2  0
 31 32  1  0
 32 33  2  0
 33 34  1  0
 34 35  2  0
 35 36  1  0
 36 37  2  0
 37 38  1  0
 38 39  2  0
 39 40  1  0
 39 41  1  0
 41 42  2  0
 42  2  1  0
 14 10  1  0
 28 15  1  0
 35 30  1  0
 42 36  1  0
 27 22  1  0
M  END
>  <Title>  (906) 
idABGXgen14

$$$$

     RDKit          2D

  9  9  0  0  0  0  0  0  0  0999 V2000
    5.0260   -1.2990    0.0000 C   0  0  0  0  0  0  0  0  0  0  0  0
    3.5260   -1.2990    0.0000 C   0  0  0  0  0  0  0  0  0  0  0  0
    2.7760   -2.5981    0.0000 O   0  0  0  0  0  0  0  0  0  0  0  0
    2.7760    0.0000    0.0000 N   0  0  0  0  0  0  0  0  0  0  0  0
    1.2760    0.0000    0.0000 C   0  0  0  0  0  0  0  0  0  0  0  0
    0.3943    1.2135    0.0000 C   0  0  0  0  0  0  0  0  0  0  0  0
   -1.0323    0.7500    0.0000 C   0  0  0  0  0  0  0  0  0  0  0  0
   -1.0323   -0.7500    0.0000 C   0  0  0  0  0  0  0  0  0  0  0  0
    0.3943   -1.2135    0.0000 C   0  0  0  0  0  0  0  0  0  0  0  0
  1  2  1  0
  2  3  2  0
  2  4  1  0
  4  5  1  0
  5  6  2  0
  6  7  1  0
  7  8  1  0
  8  9  2  0
  9  5  1  0
M  END
>  <Title>  (907) 
idABGYgen14

$$$$

     RDKit          2D

 12 13  0  0  0  0  0  0  0  0999 V2000
    3.0000    0.0000    0.0000 C   0  0  0  0  0  0  0  0  0  0  0  0
    1.5000    0.0000    0.0000 C   0  0  0  0  0  0  0  0  0  0  0  0
    0.7500   -1.2990    0.0000 C   0  0  0  0  0  0  0  0  0  0  0  0
   -0.7500   -1.2990    0.0000 C   0  0  0  0  0  0  0  0  0  0  0  0
   -1.5000    0.0000    0.0000 C   0  0  0  0  0  0  0  0  0  0  0  0
   -0.7500    1.2990    0.0000 C   0  0  0  0  0  0  0  0  0  0  0  0
    0.7500    1.2990    0.0000 C   0  0  0  0  0  0  0  0  0  0  0  0
    1.5000    2.5981    0.0000 C   0  0  0  0  0  0  0  0  0  0  0  0
    0.8899    3.9684    0.0000 C   0  0  0  0  0  0  0  0  0  0  0  0
    2.0046    4.9721    0.0000 C   0  0  0  0  0  0  0  0  0  0  0  0
    3.3037    4.2221    0.0000 C   0  0  0  0  0  0  0  0  0  0  0  0
    2.9918    2.7549    0.0000 C   0  0  0  0  0  0  0  0  0  0  0  0
  1  2  1  0
  2  3  1  0
  3  4  1  0
  4  5  1  0
  5  6  1  0
  6  7  1  0
  7  8  1  0
  8  9  1  0
  9 10  2  0
 10 11  1  0
 11 12  1  0
  7  2  1  0
 12  8  1  0
M  END
>  <Title>  (908) 
idABGZgen14

$$$$

     RDKit          2D

  8  8  0  0  0  0  0  0  0  0999 V2000
    5.0260   -1.2990    0.0000 C   0  0  0  0  0  0  0  0  0  0  0  0
    3.5260   -1.2990    0.0000 C   0  0  0  0  0  0  0  0  0  0  0  0
    2.7760    0.0000    0.0000 C   0  0  0  0  0  0  0  0  0  0  0  0
    1.2760    0.0000    0.0000 N   0  0  0  0  0  0  0  0  0  0  0  0
    0.3943    1.2135    0.0000 C   0  0  0  0  0  0  0  0  0  0  0  0
   -1.0323    0.7500    0.0000 C   0  0  0  0  0  0  0  0  0  0  0  0
   -1.0323   -0.7500    0.0000 C   0  0  0  0  0  0  0  0  0  0  0  0
    0.3943   -1.2135    0.0000 C   0  0  0  0  0  0  0  0  0  0  0  0
  1  2  1  0
  2  3  2  3
  3  4  1  0
  4  5  1  0
  5  6  2  0
  6  7  1  0
  7  8  2  0
  8  4  1  0
M  END
>  <Title>  (909) 
idABHAgen14

$$$$

     RDKit          2D

  5  4  0  0  0  0  0  0  0  0999 V2000
    0.0000    0.0000    0.0000 C   0  0  0  0  0  0  0  0  0  0  0  0
    1.2990    0.7500    0.0000 C   0  0  0  0  0  0  0  0  0  0  0  0
    2.5981   -0.0000    0.0000 C   0  0  0  0  0  0  0  0  0  0  0  0
    3.8971    0.7500    0.0000 C   0  0  0  0  0  0  0  0  0  0  0  0
    2.5981   -1.5000    0.0000 C   0  0  0  0  0  0  0  0  0  0  0  0
  1  2  1  0
  2  3  1  0
  3  4  1  0
  3  5  1  0
M  END
>  <Title>  (910) 
idABHBgen14

$$$$

     RDKit          2D

  7  7  0  0  0  0  0  0  0  0999 V2000
    3.0000    0.0000    0.0000 C   0  0  0  0  0  0  0  0  0  0  0  0
    1.5000    0.0000    0.0000 C   0  0  0  0  0  0  0  0  0  0  0  0
    0.7500   -1.2990    0.0000 C   0  0  0  0  0  0  0  0  0  0  0  0
   -0.7500   -1.2990    0.0000 C   0  0  0  0  0  0  0  0  0  0  0  0
   -1.5000    0.0000    0.0000 C   0  0  0  0  0  0  0  0  0  0  0  0
   -0.7500    1.2990    0.0000 C   0  0  0  0  0  0  0  0  0  0  0  0
    0.7500    1.2990    0.0000 N   0  0  0  0  0  0  0  0  0  0  0  0
  1  2  1  0
  2  3  1  0
  3  4  2  0
  4  5  1  0
  5  6  1  0
  6  7  1  0
  7  2  1  0
M  END
>  <Title>  (911) 
idABHCgen14

$$$$

     RDKit          2D

  8  7  0  0  0  0  0  0  0  0999 V2000
    0.0000    0.0000    0.0000 C   0  0  0  0  0  0  0  0  0  0  0  0
    1.2990    0.7500    0.0000 C   0  0  0  0  0  0  0  0  0  0  0  0
    2.5981   -0.0000    0.0000 C   0  0  0  0  0  0  0  0  0  0  0  0
    3.8971    0.7500    0.0000 C   0  0  0  0  0  0  0  0  0  0  0  0
    5.1962   -0.0000    0.0000 C   0  0  0  0  0  0  0  0  0  0  0  0
    6.4952    0.7500    0.0000 C   0  0  0  0  0  0  0  0  0  0  0  0
    5.1962   -1.5000    0.0000 C   0  0  0  0  0  0  0  0  0  0  0  0
    6.4952   -2.2500    0.0000 C   0  0  0  0  0  0  0  0  0  0  0  0
  1  2  1  0
  2  3  2  3
  3  4  1  0
  4  5  1  0
  5  6  1  0
  5  7  1  0
  7  8  1  0
M  END
>  <Title>  (912) 
idABHDgen14

$$$$

     RDKit          2D

 33 37  0  0  0  0  0  0  0  0999 V2000
    0.6531   -8.1799    0.0000 C   0  0  0  0  0  0  0  0  0  0  0  0
   -0.7958   -8.5681    0.0000 C   0  0  0  0  0  0  0  0  0  0  0  0
   -1.5458   -9.8672    0.0000 C   0  0  0  0  0  0  0  0  0  0  0  0
   -1.5458  -11.3672    0.0000 C   0  0  0  0  0  0  0  0  0  0  0  0
   -2.8449  -12.1172    0.0000 C   0  0  0  0  0  0  0  0  0  0  0  0
   -4.1439  -11.3672    0.0000 C   0  0  0  0  0  0  0  0  0  0  0  0
   -4.1439   -9.8672    0.0000 C   0  0  0  0  0  0  0  0  0  0  0  0
   -2.8449   -9.1172    0.0000 C   0  0  0  0  0  0  0  0  0  0  0  0
   -2.0949   -7.8181    0.0000 C   0  0  0  0  0  0  0  0  0  0  0  0
   -2.4831   -6.3692    0.0000 C   0  0  0  0  0  0  0  0  0  0  0  0
   -3.9320   -5.9810    0.0000 C   0  0  0  0  0  0  0  0  0  0  0  0
   -4.9926   -7.0417    0.0000 O   0  0  0  0  0  0  0  0  0  0  0  0
   -4.3202   -4.5321    0.0000 N   0  0  0  0  0  0  0  0  0  0  0  0
   -5.7691   -4.1439    0.0000 C   0  0  0  0  0  0  0  0  0  0  0  0
   -6.9348   -5.0879    0.0000 N   0  0  0  0  0  0  0  0  0  0  0  0
   -8.1928   -4.2709    0.0000 N   0  0  0  0  0  0  0  0  0  0  0  0
   -7.8046   -2.8220    0.0000 N   0  0  0  0  0  0  0  0  0  0  0  0
   -6.3066   -2.7435    0.0000 N   0  0  0  0  0  0  0  0  0  0  0  0
   -5.4897   -1.4855    0.0000 C   0  0  0  0  0  0  0  0  0  0  0  0
   -3.9917   -1.4070    0.0000 C   0  0  0  0  0  0  0  0  0  0  0  0
   -3.6035    0.0419    0.0000 C   0  0  0  0  0  0  0  0  0  0  0  0
   -4.8615    0.8588    0.0000 C   0  0  0  0  0  0  0  0  0  0  0  0
   -4.9400    2.3568    0.0000 C   0  0  0  0  0  0  0  0  0  0  0  0
   -6.2765    3.0378    0.0000 O   0  0  0  0  0  0  0  0  0  0  0  0
   -3.6820    3.1737    0.0000 N   0  0  0  0  0  0  0  0  0  0  0  0
   -3.7605    4.6717    0.0000 C   0  0  0  0  0  0  0  0  0  0  0  0
   -5.0970    5.3527    0.0000 N   0  0  0  0  0  0  0  0  0  0  0  0
   -5.1755    6.8506    0.0000 N   0  0  0  0  0  0  0  0  0  0  0  0
   -3.9175    7.6676    0.0000 N   0  0  0  0  0  0  0  0  0  0  0  0
   -2.5810    6.9866    0.0000 N   0  0  0  0  0  0  0  0  0  0  0  0
   -2.5025    5.4886    0.0000 N   0  0  0  0  0  0  0  0  0  0  0  0
   -6.0272   -0.0852    0.0000 C   0  0  0  0  0  0  0  0  0  0  0  0
   -7.4761    0.3031    0.0000 O   0  0  0  0  0  0  0  0  0  0  0  0
  1  2  1  0
  2  3  1  0
  3  4  2  0
  4  5  1  0
  5  6  2  0
  6  7  1  0
  7  8  2  0
  8  9  1  0
  9 10  1  0
 10 11  1  0
 11 12  2  0
 11 13  1  0
 13 14  1  0
 14 15  2  0
 15 16  1  0
 16 17  2  0
 17 18  1  0
 18 19  1  0
 19 20  2  0
 20 21  1  0
 21 22  2  0
 22 23  1  0
 23 24  2  0
 23 25  1  0
 25 26  1  0
 26 27  2  0
 27 28  1  0
 28 29  2  0
 29 30  1  0
 30 31  2  0
 22 32  1  0
 32 33  2  0
  9  2  1  0
 18 14  1  0
 32 19  1  0
  8  3  1  0
 31 26  1  0
M  END
>  <Title>  (913) 
idABHEgen14

$$$$

     RDKit          2D

 44 49  0  0  0  0  0  0  0  0999 V2000
   -7.7508    4.4425    0.0000 C   0  0  0  0  0  0  0  0  0  0  0  0
   -6.4517    3.6925    0.0000 C   0  0  0  0  0  0  0  0  0  0  0  0
   -6.4517    2.1925    0.0000 C   0  0  0  0  0  0  0  0  0  0  0  0
   -5.1527    1.4425    0.0000 N   0  0  0  0  0  0  0  0  0  0  0  0
   -5.1527   -0.0575    0.0000 C   0  0  0  0  0  0  0  0  0  0  0  0
   -6.4517   -0.8075    0.0000 O   0  0  0  0  0  0  0  0  0  0  0  0
   -3.8536   -0.8075    0.0000 N   0  0  0  0  0  0  0  0  0  0  0  0
   -3.8536   -2.3075    0.0000 C   0  0  0  0  0  0  0  0  0  0  0  0
   -5.0672   -3.1891    0.0000 N   0  0  0  0  0  0  0  0  0  0  0  0
   -4.6036   -4.6157    0.0000 N   0  0  0  0  0  0  0  0  0  0  0  0
   -3.1036   -4.6157    0.0000 N   0  0  0  0  0  0  0  0  0  0  0  0
   -2.6401   -3.1891    0.0000 N   0  0  0  0  0  0  0  0  0  0  0  0
   -1.2135   -2.7256    0.0000 N   0  0  0  0  0  0  0  0  0  0  0  0
   -0.0000   -3.6073    0.0000 C   0  0  0  0  0  0  0  0  0  0  0  0
    1.2135   -2.7256    0.0000 C   0  0  0  0  0  0  0  0  0  0  0  0
    2.6401   -3.1891    0.0000 C   0  0  0  0  0  0  0  0  0  0  0  0
    3.7548   -2.1855    0.0000 O   0  0  0  0  0  0  0  0  0  0  0  0
    2.9520   -4.6564    0.0000 N   0  0  0  0  0  0  0  0  0  0  0  0
    4.3786   -5.1199    0.0000 C   0  0  0  0  0  0  0  0  0  0  0  0
    5.5921   -4.2382    0.0000 N   0  0  0  0  0  0  0  0  0  0  0  0
    6.8056   -5.1199    0.0000 N   0  0  0  0  0  0  0  0  0  0  0  0
    6.3421   -6.5465    0.0000 N   0  0  0  0  0  0  0  0  0  0  0  0
    4.8421   -6.5465    0.0000 N   0  0  0  0  0  0  0  0  0  0  0  0
    3.9604   -7.7600    0.0000 N   0  0  0  0  0  0  0  0  0  0  0  0
    4.4239   -9.1866    0.0000 C   0  0  0  0  0  0  0  0  0  0  0  0
    3.2104  -10.0683    0.0000 C   0  0  0  0  0  0  0  0  0  0  0  0
    1.9969   -9.1866    0.0000 N   0  0  0  0  0  0  0  0  0  0  0  0
    0.5703   -9.6501    0.0000 C   0  0  0  0  0  0  0  0  0  0  0  0
    0.2584  -11.1173    0.0000 O   0  0  0  0  0  0  0  0  0  0  0  0
   -0.5444   -8.6464    0.0000 N   0  0  0  0  0  0  0  0  0  0  0  0
   -1.9710   -9.1099    0.0000 C   0  0  0  0  0  0  0  0  0  0  0  0
   -3.0857   -8.1062    0.0000 N   0  0  0  0  0  0  0  0  0  0  0  0
   -4.5123   -8.5698    0.0000 N   0  0  0  0  0  0  0  0  0  0  0  0
   -4.8242  -10.0370    0.0000 N   0  0  0  0  0  0  0  0  0  0  0  0
   -3.7095  -11.0407    0.0000 N   0  0  0  0  0  0  0  0  0  0  0  0
   -2.2829  -10.5772    0.0000 N   0  0  0  0  0  0  0  0  0  0  0  0
    2.4604   -7.7600    0.0000 C   0  0  0  0  0  0  0  0  0  0  0  0
    1.5787   -6.5465    0.0000 O   0  0  0  0  0  0  0  0  0  0  0  0
    0.7500   -1.2990    0.0000 C   0  0  0  0  0  0  0  0  0  0  0  0
    1.5000    0.0000    0.0000 C   0  0  0  0  0  0  0  0  0  0  0  0
    0.7500    1.2990    0.0000 C   0  0  0  0  0  0  0  0  0  0  0  0
   -0.7500    1.2990    0.0000 C   0  0  0  0  0  0  0  0  0  0  0  0
   -1.5000    0.0000    0.0000 C   0  0  0  0  0  0  0  0  0  0  0  0
   -0.7500   -1.2990    0.0000 C   0  0  0  0  0  0  0  0  0  0  0  0
  1  2  1  0
  2  3  2  3
  3  4  1  0
  4  5  1  0
  5  6  2  0
  5  7  1  0
  7  8  1  0
  8  9  2  0
  9 10  1  0
 10 11  2  0
 11 12  1  0
 12 13  1  0
 13 14  1  0
 14 15  2  0
 15 16  1  0
 16 17  2  0
 16 18  1  0
 18 19  1  0
 19 20  2  0
 20 21  1  0
 21 22  2  0
 22 23  1  0
 23 24  1  0
 24 25  1  0
 25 26  1  0
 26 27  1  0
 27 28  1  0
 28 29  2  0
 28 30  1  0
 30 31  1  0
 31 32  2  0
 32 33  1  0
 33 34  2  0
 34 35  1  0
 35 36  2  0
 27 37  1  0
 37 38  2  0
 15 39  1  0
 39 40  2  0
 40 41  1  0
 41 42  2  0
 42 43  1  0
 43 44  2  0
 12  8  1  0
 44 13  1  0
 23 19  1  0
 37 24  1  0
 44 39  1  0
 36 31  1  0
M  END
>  <Title>  (914) 
idABHFgen14

$$$$

     RDKit          2D

  9  9  0  0  0  0  0  0  0  0999 V2000
    5.2500   -1.2990    0.0000 C   0  0  0  0  0  0  0  0  0  0  0  0
    3.7500   -1.2990    0.0000 C   0  0  0  0  0  0  0  0  0  0  0  0
    3.0000    0.0000    0.0000 C   0  0  0  0  0  0  0  0  0  0  0  0
    1.5000    0.0000    0.0000 C   0  0  0  0  0  0  0  0  0  0  0  0
    0.7500   -1.2990    0.0000 C   0  0  0  0  0  0  0  0  0  0  0  0
   -0.7500   -1.2990    0.0000 C   0  0  0  0  0  0  0  0  0  0  0  0
   -1.5000    0.0000    0.0000 C   0  0  0  0  0  0  0  0  0  0  0  0
   -0.7500    1.2990    0.0000 C   0  0  0  0  0  0  0  0  0  0  0  0
    0.7500    1.2990    0.0000 N   0  0  0  0  0  0  0  0  0  0  0  0
  1  2  1  0
  2  3  1  0
  3  4  1  0
  4  5  2  0
  5  6  1  0
  6  7  2  0
  7  8  1  0
  8  9  2  0
  9  4  1  0
M  END
>  <Title>  (915) 
idABHGgen14

$$$$

     RDKit          2D

 17 17  0  0  0  0  0  0  0  0999 V2000
    5.4786   -6.4952    0.0000 C   0  0  0  0  0  0  0  0  0  0  0  0
    6.2286   -5.1962    0.0000 C   0  0  0  0  0  0  0  0  0  0  0  0
    7.7286   -5.1962    0.0000 C   0  0  0  0  0  0  0  0  0  0  0  0
    5.4786   -3.8971    0.0000 C   0  0  0  0  0  0  0  0  0  0  0  0
    6.2286   -2.5981    0.0000 C   0  0  0  0  0  0  0  0  0  0  0  0
    7.7286   -2.5981    0.0000 C   0  0  0  0  0  0  0  0  0  0  0  0
    5.4786   -1.2990    0.0000 N   0  0  0  0  0  0  0  0  0  0  0  0
    3.9786   -1.2990    0.0000 C   0  0  0  0  0  0  0  0  0  0  0  0
    3.2286   -2.5981    0.0000 O   0  0  0  0  0  0  0  0  0  0  0  0
    3.2286   -0.0000    0.0000 N   0  0  0  0  0  0  0  0  0  0  0  0
    1.7286    0.0000    0.0000 C   0  0  0  0  0  0  0  0  0  0  0  0
    1.0777    1.3515    0.0000 C   0  0  0  0  0  0  0  0  0  0  0  0
   -0.3846    1.6852    0.0000 S   0  0  0  0  0  0  0  0  0  0  0  0
   -1.5574    0.7500    0.0000 N   0  0  0  0  0  0  0  0  0  0  0  0
   -1.5574   -0.7500    0.0000 C   0  0  0  0  0  0  0  0  0  0  0  0
   -0.3846   -1.6852    0.0000 C   0  0  0  0  0  0  0  0  0  0  0  0
    1.0777   -1.3515    0.0000 C   0  0  0  0  0  0  0  0  0  0  0  0
  1  2  1  0
  2  3  1  0
  2  4  1  0
  4  5  1  0
  5  6  1  0
  5  7  1  0
  7  8  1  0
  8  9  2  0
  8 10  1  0
 10 11  1  0
 11 12  2  0
 12 13  1  0
 13 14  1  0
 14 15  2  0
 15 16  1  0
 16 17  2  0
 17 11  1  0
M  END
>  <Title>  (916) 
idABHHgen14

$$$$

     RDKit          2D

 42 47  0  0  0  0  0  0  0  0999 V2000
   -3.1771   -5.9156    0.0000 C   0  0  0  0  0  0  0  0  0  0  0  0
   -1.9635   -5.0339    0.0000 C   0  0  0  0  0  0  0  0  0  0  0  0
   -0.7500   -5.9156    0.0000 C   0  0  0  0  0  0  0  0  0  0  0  0
    0.7500   -5.9156    0.0000 C   0  0  0  0  0  0  0  0  0  0  0  0
    1.9635   -5.0339    0.0000 C   0  0  0  0  0  0  0  0  0  0  0  0
    2.4271   -3.6073    0.0000 C   0  0  0  0  0  0  0  0  0  0  0  0
    1.9635   -2.1807    0.0000 C   0  0  0  0  0  0  0  0  0  0  0  0
    3.1771   -1.2990    0.0000 C   0  0  0  0  0  0  0  0  0  0  0  0
    3.0203    0.1927    0.0000 O   0  0  0  0  0  0  0  0  0  0  0  0
    4.5474   -1.9091    0.0000 N   0  0  0  0  0  0  0  0  0  0  0  0
    5.7609   -1.0275    0.0000 C   0  0  0  0  0  0  0  0  0  0  0  0
    5.7609    0.4725    0.0000 N   0  0  0  0  0  0  0  0  0  0  0  0
    7.1875    0.9361    0.0000 N   0  0  0  0  0  0  0  0  0  0  0  0
    8.0692   -0.2775    0.0000 N   0  0  0  0  0  0  0  0  0  0  0  0
    7.1875   -1.4910    0.0000 N   0  0  0  0  0  0  0  0  0  0  0  0
    7.6510   -2.9176    0.0000 N   0  0  0  0  0  0  0  0  0  0  0  0
    9.0776   -3.3811    0.0000 C   0  0  0  0  0  0  0  0  0  0  0  0
    9.0776   -4.8811    0.0000 C   0  0  0  0  0  0  0  0  0  0  0  0
    7.6510   -5.3446    0.0000 N   0  0  0  0  0  0  0  0  0  0  0  0
    7.1875   -6.7712    0.0000 C   0  0  0  0  0  0  0  0  0  0  0  0
    8.1912   -7.8859    0.0000 O   0  0  0  0  0  0  0  0  0  0  0  0
    5.7203   -7.0831    0.0000 N   0  0  0  0  0  0  0  0  0  0  0  0
    5.2567   -8.5097    0.0000 C   0  0  0  0  0  0  0  0  0  0  0  0
    3.7895   -8.8215    0.0000 N   0  0  0  0  0  0  0  0  0  0  0  0
    3.3260  -10.2481    0.0000 N   0  0  0  0  0  0  0  0  0  0  0  0
    4.3297  -11.3628    0.0000 N   0  0  0  0  0  0  0  0  0  0  0  0
    5.7969  -11.0510    0.0000 N   0  0  0  0  0  0  0  0  0  0  0  0
    6.2604   -9.6244    0.0000 N   0  0  0  0  0  0  0  0  0  0  0  0
    6.7693   -4.1311    0.0000 C   0  0  0  0  0  0  0  0  0  0  0  0
    5.2693   -4.1311    0.0000 O   0  0  0  0  0  0  0  0  0  0  0  0
    0.7500   -1.2990    0.0000 C   0  0  0  0  0  0  0  0  0  0  0  0
    1.5000    0.0000    0.0000 C   0  0  0  0  0  0  0  0  0  0  0  0
    0.7500    1.2990    0.0000 C   0  0  0  0  0  0  0  0  0  0  0  0
   -0.7500    1.2990    0.0000 C   0  0  0  0  0  0  0  0  0  0  0  0
   -1.5000    0.0000    0.0000 C   0  0  0  0  0  0  0  0  0  0  0  0
   -0.7500   -1.2990    0.0000 C   0  0  0  0  0  0  0  0  0  0  0  0
   -1.9635   -2.1807    0.0000 C   0  0  0  0  0  0  0  0  0  0  0  0
   -2.9672   -1.0660    0.0000 C   0  0  0  0  0  0  0  0  0  0  0  0
   -4.4344   -1.3779    0.0000 C   0  0  0  0  0  0  0  0  0  0  0  0
   -4.8980   -2.8045    0.0000 C   0  0  0  0  0  0  0  0  0  0  0  0
   -3.8943   -3.9192    0.0000 C   0  0  0  0  0  0  0  0  0  0  0  0
   -2.4271   -3.6073    0.0000 C   0  0  0  0  0  0  0  0  0  0  0  0
  1  2  1  0
  2  3  1  0
  3  4  1  0
  4  5  1  0
  5  6  1  0
  6  7  1  0
  7  8  1  0
  8  9  2  0
  8 10  1  0
 10 11  1  0
 11 12  2  0
 12 13  1  0
 13 14  2  0
 14 15  1  0
 15 16  1  0
 16 17  1  0
 17 18  1  0
 18 19  1  0
 19 20  1  0
 20 21  2  0
 20 22  1  0
 22 23  1  0
 23 24  2  0
 24 25  1  0
 25 26  2  0
 26 27  1  0
 27 28  2  0
 19 29  1  0
 29 30  2  0
  7 31  1  0
 31 32  2  0
 32 33  1  0
 33 34  2  0
 34 35  1  0
 35 36  2  0
 36 37  1  0
 37 38  2  0
 38 39  1  0
 39 40  2  0
 40 41  1  0
 41 42  2  0
 42  2  1  0
 15 11  1  0
 29 16  1  0
 36 31  1  0
 42 37  1  0
 28 23  1  0
M  END
>  <Title>  (917) 
idABHIgen14

$$$$

     RDKit          2D

 35 39  0  0  0  0  0  0  0  0999 V2000
   -3.0000   -2.5981    0.0000 C   0  0  0  0  0  0  0  0  0  0  0  0
   -1.5000   -2.5981    0.0000 C   0  0  0  0  0  0  0  0  0  0  0  0
   -0.7500   -3.8971    0.0000 C   0  0  0  0  0  0  0  0  0  0  0  0
    0.7500   -3.8971    0.0000 C   0  0  0  0  0  0  0  0  0  0  0  0
    1.5000   -2.5981    0.0000 C   0  0  0  0  0  0  0  0  0  0  0  0
    3.0000   -2.5981    0.0000 C   0  0  0  0  0  0  0  0  0  0  0  0
    3.7500   -1.2990    0.0000 O   0  0  0  0  0  0  0  0  0  0  0  0
    3.7500   -3.8971    0.0000 N   0  0  0  0  0  0  0  0  0  0  0  0
    5.2500   -3.8971    0.0000 C   0  0  0  0  0  0  0  0  0  0  0  0
    6.1317   -2.6836    0.0000 N   0  0  0  0  0  0  0  0  0  0  0  0
    7.5583   -3.1471    0.0000 N   0  0  0  0  0  0  0  0  0  0  0  0
    7.5583   -4.6471    0.0000 N   0  0  0  0  0  0  0  0  0  0  0  0
    6.1317   -5.1106    0.0000 N   0  0  0  0  0  0  0  0  0  0  0  0
    5.6682   -6.5372    0.0000 C   0  0  0  0  0  0  0  0  0  0  0  0
    6.5498   -7.7508    0.0000 C   0  0  0  0  0  0  0  0  0  0  0  0
    5.6682   -8.9643    0.0000 C   0  0  0  0  0  0  0  0  0  0  0  0
    4.2416   -8.5008    0.0000 C   0  0  0  0  0  0  0  0  0  0  0  0
    3.0280   -9.3824    0.0000 O   0  0  0  0  0  0  0  0  0  0  0  0
    1.6577   -8.7723    0.0000 C   0  0  0  0  0  0  0  0  0  0  0  0
    1.5009   -7.2805    0.0000 O   0  0  0  0  0  0  0  0  0  0  0  0
    0.4442   -9.6540    0.0000 N   0  0  0  0  0  0  0  0  0  0  0  0
   -0.9261   -9.0439    0.0000 C   0  0  0  0  0  0  0  0  0  0  0  0
   -1.0829   -7.5521    0.0000 N   0  0  0  0  0  0  0  0  0  0  0  0
   -2.4532   -6.9420    0.0000 N   0  0  0  0  0  0  0  0  0  0  0  0
   -3.6668   -7.8237    0.0000 N   0  0  0  0  0  0  0  0  0  0  0  0
   -3.5100   -9.3155    0.0000 N   0  0  0  0  0  0  0  0  0  0  0  0
   -2.1396   -9.9256    0.0000 N   0  0  0  0  0  0  0  0  0  0  0  0
    4.2416   -7.0008    0.0000 C   0  0  0  0  0  0  0  0  0  0  0  0
    3.0280   -6.1191    0.0000 O   0  0  0  0  0  0  0  0  0  0  0  0
    0.7500   -1.2990    0.0000 C   0  0  0  0  0  0  0  0  0  0  0  0
    1.5000    0.0000    0.0000 C   0  0  0  0  0  0  0  0  0  0  0  0
    0.7500    1.2990    0.0000 C   0  0  0  0  0  0  0  0  0  0  0  0
   -0.7500    1.2990    0.0000 C   0  0  0  0  0  0  0  0  0  0  0  0
   -1.5000    0.0000    0.0000 C   0  0  0  0  0  0  0  0  0  0  0  0
   -0.7500   -1.2990    0.0000 C   0  0  0  0  0  0  0  0  0  0  0  0
  1  2  1  0
  2  3  1  0
  3  4  2  0
  4  5  1  0
  5  6  1  0
  6  7  2  0
  6  8  1  0
  8  9  1  0
  9 10  2  0
 10 11  1  0
 11 12  2  0
 12 13  1  0
 13 14  1  0
 14 15  2  0
 15 16  1  0
 16 17  2  0
 17 18  1  0
 18 19  1  0
 19 20  2  0
 19 21  1  0
 21 22  1  0
 22 23  2  0
 23 24  1  0
 24 25  2  0
 25 26  1  0
 26 27  2  0
 17 28  1  0
 28 29  2  0
  5 30  1  0
 30 31  2  0
 31 32  1  0
 32 33  2  0
 33 34  1  0
 34 35  2  0
 35  2  1  0
 13  9  1  0
 28 14  1  0
 35 30  1  0
 27 22  1  0
M  END
>  <Title>  (918) 
idABHJgen14

$$$$

     RDKit          2D

 16 17  0  0  0  0  0  0  0  0999 V2000
    3.0000   -5.1962    0.0000 O   0  0  0  0  0  0  0  0  0  0  0  0
    1.5000   -5.1962    0.0000 C   0  0  0  0  0  0  0  0  0  0  0  0
    0.7500   -6.4952    0.0000 C   0  0  0  0  0  0  0  0  0  0  0  0
    1.5000   -7.7942    0.0000 C   0  0  0  0  0  0  0  0  0  0  0  0
    2.9918   -7.9510    0.0000 C   0  0  0  0  0  0  0  0  0  0  0  0
    3.3037   -9.4182    0.0000 C   0  0  0  0  0  0  0  0  0  0  0  0
    2.0046  -10.1682    0.0000 C   0  0  0  0  0  0  0  0  0  0  0  0
    0.8899   -9.1645    0.0000 N   0  0  0  0  0  0  0  0  0  0  0  0
    0.7500   -3.8971    0.0000 N   0  0  0  0  0  0  0  0  0  0  0  0
    1.5000   -2.5981    0.0000 C   0  0  0  0  0  0  0  0  0  0  0  0
    0.7500   -1.2990    0.0000 C   0  0  0  0  0  0  0  0  0  0  0  0
    1.5000    0.0000    0.0000 C   0  0  0  0  0  0  0  0  0  0  0  0
    0.7500    1.2990    0.0000 C   0  0  0  0  0  0  0  0  0  0  0  0
   -0.7500    1.2990    0.0000 C   0  0  0  0  0  0  0  0  0  0  0  0
   -1.5000    0.0000    0.0000 N   0  0  0  0  0  0  0  0  0  0  0  0
   -0.7500   -1.2990    0.0000 C   0  0  0  0  0  0  0  0  0  0  0  0
  1  2  1  0
  2  3  1  0
  3  4  1  0
  4  5  2  0
  5  6  1  0
  6  7  1  0
  7  8  2  0
  2  9  1  0
  9 10  1  0
 10 11  1  0
 11 12  2  0
 12 13  1  0
 13 14  2  0
 14 15  1  0
 15 16  2  0
  8  4  1  0
 16 11  1  0
M  END
>  <Title>  (919) 
idABHKgen14

$$$$

     RDKit          2D

 14 13  0  0  0  0  0  0  0  0999 V2000
    0.0000    0.0000    0.0000 C   0  0  0  0  0  0  0  0  0  0  0  0
    1.2990    0.7500    0.0000 C   0  0  0  0  0  0  0  0  0  0  0  0
    2.5981   -0.0000    0.0000 C   0  0  0  0  0  0  0  0  0  0  0  0
    3.8971    0.7500    0.0000 C   0  0  0  0  0  0  0  0  0  0  0  0
    3.8971    2.2500    0.0000 O   0  0  0  0  0  0  0  0  0  0  0  0
    5.1962   -0.0000    0.0000 N   0  0  0  0  0  0  0  0  0  0  0  0
    6.4952    0.7500    0.0000 C   0  0  0  0  0  0  0  0  0  0  0  0
    7.7942   -0.0000    0.0000 C   0  0  0  0  0  0  0  0  0  0  0  0
    6.4952    2.2500    0.0000 C   0  0  0  0  0  0  0  0  0  0  0  0
    7.7942    3.0000    0.0000 C   0  0  0  0  0  0  0  0  0  0  0  0
    7.7942    4.5000    0.0000 C   0  0  0  0  0  0  0  0  0  0  0  0
    9.0933    5.2500    0.0000 C   0  0  0  0  0  0  0  0  0  0  0  0
    9.0933    6.7500    0.0000 C   0  0  0  0  0  0  0  0  0  0  0  0
   10.3923    4.5000    0.0000 C   0  0  0  0  0  0  0  0  0  0  0  0
  1  2  1  0
  2  3  1  0
  3  4  1  0
  4  5  2  0
  4  6  1  0
  6  7  1  0
  7  8  1  0
  7  9  1  0
  9 10  1  0
 10 11  1  0
 11 12  1  0
 12 13  1  0
 12 14  1  0
M  END
>  <Title>  (920) 
idABHLgen14

$$$$

     RDKit          2D

  9  9  0  0  0  0  0  0  0  0999 V2000
    4.5000   -2.5981    0.0000 C   0  0  0  0  0  0  0  0  0  0  0  0
    3.7500   -1.2990    0.0000 C   0  0  0  0  0  0  0  0  0  0  0  0
    3.0000    0.0000    0.0000 C   0  0  0  0  0  0  0  0  0  0  0  0
    1.5000    0.0000    0.0000 C   0  0  0  0  0  0  0  0  0  0  0  0
    0.7500   -1.2990    0.0000 C   0  0  0  0  0  0  0  0  0  0  0  0
   -0.7500   -1.2990    0.0000 C   0  0  0  0  0  0  0  0  0  0  0  0
   -1.5000    0.0000    0.0000 C   0  0  0  0  0  0  0  0  0  0  0  0
   -0.7500    1.2990    0.0000 C   0  0  0  0  0  0  0  0  0  0  0  0
    0.7500    1.2990    0.0000 C   0  0  0  0  0  0  0  0  0  0  0  0
  1  2  3  0
  2  3  1  0
  3  4  1  0
  4  5  1  0
  5  6  2  0
  6  7  1  0
  7  8  2  0
  8  9  1  0
  9  4  1  0
M  END
>  <Title>  (921) 
idABHMgen14

$$$$

     RDKit          2D

  9  9  0  0  0  0  0  0  0  0999 V2000
    7.2760   -0.0000    0.0000 C   0  0  0  0  0  0  0  0  0  0  0  0
    5.7760   -0.0000    0.0000 C   0  0  0  0  0  0  0  0  0  0  0  0
    4.2760   -0.0000    0.0000 C   0  0  0  0  0  0  0  0  0  0  0  0
    2.7760    0.0000    0.0000 C   0  0  0  0  0  0  0  0  0  0  0  0
    1.2760    0.0000    0.0000 C   0  0  0  0  0  0  0  0  0  0  0  0
    0.3943    1.2135    0.0000 C   0  0  0  0  0  0  0  0  0  0  0  0
   -1.0323    0.7500    0.0000 C   0  0  0  0  0  0  0  0  0  0  0  0
   -1.0323   -0.7500    0.0000 C   0  0  0  0  0  0  0  0  0  0  0  0
    0.3943   -1.2135    0.0000 C   0  0  0  0  0  0  0  0  0  0  0  0
  1  2  3  0
  2  3  1  0
  3  4  3  0
  4  5  1  0
  5  6  2  0
  6  7  1  0
  7  8  1  0
  8  9  2  0
  9  5  1  0
M  END
>  <Title>  (922) 
idABHNgen14

$$$$

     RDKit          2D

 14 14  0  0  0  0  0  0  0  0999 V2000
    9.7500   -3.8971    0.0000 C   0  0  0  0  0  0  0  0  0  0  0  0
    8.2500   -3.8971    0.0000 C   0  0  0  0  0  0  0  0  0  0  0  0
    7.5000   -2.5981    0.0000 C   0  0  0  0  0  0  0  0  0  0  0  0
    6.0000   -2.5981    0.0000 C   0  0  0  0  0  0  0  0  0  0  0  0
    5.2500   -1.2990    0.0000 C   0  0  0  0  0  0  0  0  0  0  0  0
    6.0000    0.0000    0.0000 O   0  0  0  0  0  0  0  0  0  0  0  0
    3.7500   -1.2990    0.0000 N   0  0  0  0  0  0  0  0  0  0  0  0
    3.0000    0.0000    0.0000 C   0  0  0  0  0  0  0  0  0  0  0  0
    1.5000    0.0000    0.0000 C   0  0  0  0  0  0  0  0  0  0  0  0
    0.7500   -1.2990    0.0000 C   0  0  0  0  0  0  0  0  0  0  0  0
   -0.7500   -1.2990    0.0000 C   0  0  0  0  0  0  0  0  0  0  0  0
   -1.5000    0.0000    0.0000 C   0  0  0  0  0  0  0  0  0  0  0  0
   -0.7500    1.2990    0.0000 N   0  0  0  0  0  0  0  0  0  0  0  0
    0.7500    1.2990    0.0000 C   0  0  0  0  0  0  0  0  0  0  0  0
  1  2  1  0
  2  3  2  3
  3  4  1  0
  4  5  1  0
  5  6  2  0
  5  7  1  0
  7  8  1  0
  8  9  1  0
  9 10  2  0
 10 11  1  0
 11 12  2  0
 12 13  1  0
 13 14  2  0
 14  9  1  0
M  END
>  <Title>  (923) 
idABHOgen14

$$$$

     RDKit          2D

 38 42  0  0  0  0  0  0  0  0999 V2000
   -3.1981   -1.5132    0.0000 C   0  0  0  0  0  0  0  0  0  0  0  0
   -1.8991   -2.2632    0.0000 C   0  0  0  0  0  0  0  0  0  0  0  0
   -2.1595   -3.7404    0.0000 C   0  0  0  0  0  0  0  0  0  0  0  0
   -1.4095   -5.0395    0.0000 C   0  0  0  0  0  0  0  0  0  0  0  0
   -0.0000   -5.5525    0.0000 C   0  0  0  0  0  0  0  0  0  0  0  0
    1.4095   -5.0395    0.0000 C   0  0  0  0  0  0  0  0  0  0  0  0
    2.1595   -3.7404    0.0000 C   0  0  0  0  0  0  0  0  0  0  0  0
    1.8991   -2.2632    0.0000 C   0  0  0  0  0  0  0  0  0  0  0  0
    3.1981   -1.5132    0.0000 C   0  0  0  0  0  0  0  0  0  0  0  0
    3.1981   -0.0132    0.0000 O   0  0  0  0  0  0  0  0  0  0  0  0
    4.4971   -2.2632    0.0000 N   0  0  0  0  0  0  0  0  0  0  0  0
    5.7962   -1.5132    0.0000 C   0  0  0  0  0  0  0  0  0  0  0  0
    5.9530   -0.0214    0.0000 N   0  0  0  0  0  0  0  0  0  0  0  0
    7.4202    0.2904    0.0000 N   0  0  0  0  0  0  0  0  0  0  0  0
    8.1702   -1.0086    0.0000 N   0  0  0  0  0  0  0  0  0  0  0  0
    7.1665   -2.1233    0.0000 N   0  0  0  0  0  0  0  0  0  0  0  0
    7.4784   -3.5905    0.0000 C   0  0  0  0  0  0  0  0  0  0  0  0
    8.8487   -4.2007    0.0000 C   0  0  0  0  0  0  0  0  0  0  0  0
    8.6919   -5.6924    0.0000 C   0  0  0  0  0  0  0  0  0  0  0  0
    7.2247   -6.0043    0.0000 C   0  0  0  0  0  0  0  0  0  0  0  0
    6.6146   -7.3746    0.0000 O   0  0  0  0  0  0  0  0  0  0  0  0
    5.1228   -7.5314    0.0000 C   0  0  0  0  0  0  0  0  0  0  0  0
    4.2411   -6.3179    0.0000 O   0  0  0  0  0  0  0  0  0  0  0  0
    4.5127   -8.9017    0.0000 N   0  0  0  0  0  0  0  0  0  0  0  0
    3.0209   -9.0585    0.0000 C   0  0  0  0  0  0  0  0  0  0  0  0
    2.1392   -7.8450    0.0000 N   0  0  0  0  0  0  0  0  0  0  0  0
    0.6474   -8.0018    0.0000 N   0  0  0  0  0  0  0  0  0  0  0  0
    0.0373   -9.3721    0.0000 N   0  0  0  0  0  0  0  0  0  0  0  0
    0.9190  -10.5856    0.0000 N   0  0  0  0  0  0  0  0  0  0  0  0
    2.4108  -10.4288    0.0000 N   0  0  0  0  0  0  0  0  0  0  0  0
    6.4747   -4.7053    0.0000 C   0  0  0  0  0  0  0  0  0  0  0  0
    4.9829   -4.5485    0.0000 O   0  0  0  0  0  0  0  0  0  0  0  0
    0.7500   -1.2990    0.0000 C   0  0  0  0  0  0  0  0  0  0  0  0
    1.5000    0.0000    0.0000 C   0  0  0  0  0  0  0  0  0  0  0  0
    0.7500    1.2990    0.0000 C   0  0  0  0  0  0  0  0  0  0  0  0
   -0.7500    1.2990    0.0000 C   0  0  0  0  0  0  0  0  0  0  0  0
   -1.5000    0.0000    0.0000 C   0  0  0  0  0  0  0  0  0  0  0  0
   -0.7500   -1.2990    0.0000 C   0  0  0  0  0  0  0  0  0  0  0  0
  1  2  1  0
  2  3  1  0
  3  4  1  0
  4  5  1  0
  5  6  1  0
  6  7  1  0
  7  8  1  0
  8  9  1  0
  9 10  2  0
  9 11  1  0
 11 12  1  0
 12 13  2  0
 13 14  1  0
 14 15  2  0
 15 16  1  0
 16 17  1  0
 17 18  2  0
 18 19  1  0
 19 20  2  0
 20 21  1  0
 21 22  1  0
 22 23  2  0
 22 24  1  0
 24 25  1  0
 25 26  2  0
 26 27  1  0
 27 28  2  0
 28 29  1  0
 29 30  2  0
 20 31  1  0
 31 32  2  0
  8 33  1  0
 33 34  2  0
 34 35  1  0
 35 36  2  0
 36 37  1  0
 37 38  2  0
 38  2  1  0
 16 12  1  0
 31 17  1  0
 38 33  1  0
 30 25  1  0
M  END
>  <Title>  (924) 
idABHPgen14

$$$$

     RDKit          2D

  8  8  0  0  0  0  0  0  0  0999 V2000
    3.2286   -0.0000    0.0000 C   0  0  0  0  0  0  0  0  0  0  0  0
    1.7286    0.0000    0.0000 C   0  0  0  0  0  0  0  0  0  0  0  0
    1.0777    1.3515    0.0000 C   0  0  0  0  0  0  0  0  0  0  0  0
   -0.3846    1.6852    0.0000 C   0  0  0  0  0  0  0  0  0  0  0  0
   -1.5574    0.7500    0.0000 C   0  0  0  0  0  0  0  0  0  0  0  0
   -1.5574   -0.7500    0.0000 C   0  0  0  0  0  0  0  0  0  0  0  0
   -0.3846   -1.6852    0.0000 C   0  0  0  0  0  0  0  0  0  0  0  0
    1.0777   -1.3515    0.0000 C   0  0  0  0  0  0  0  0  0  0  0  0
  1  2  1  0
  2  3  1  0
  3  4  2  0
  4  5  1  0
  5  6  1  0
  6  7  1  0
  7  8  1  0
  8  2  1  0
M  END
>  <Title>  (925) 
idABHQgen14

$$$$

     RDKit          2D

 93 94  0  0  0  0  0  0  0  0999 V2000
   -2.3091    0.7059    0.0000 C   0  0  0  0  0  0  0  0  0  0  0  0
   -1.8191    2.1237    0.0000 C   0  0  0  0  0  0  0  0  0  0  0  0
   -3.2183    2.6645    0.0000 C   0  0  0  0  0  0  0  0  0  0  0  0
   -4.5747    3.3048    0.0000 C   0  0  0  0  0  0  0  0  0  0  0  0
   -5.8814    4.0414    0.0000 C   0  0  0  0  0  0  0  0  0  0  0  0
   -7.1316    4.8703    0.0000 C   0  0  0  0  0  0  0  0  0  0  0  0
   -8.3186    5.7873    0.0000 C   0  0  0  0  0  0  0  0  0  0  0  0
   -9.4365    6.7875    0.0000 C   0  0  0  0  0  0  0  0  0  0  0  0
  -10.4792    7.8658    0.0000 C   0  0  0  0  0  0  0  0  0  0  0  0
  -11.4414    9.0165    0.0000 C   0  0  0  0  0  0  0  0  0  0  0  0
  -12.3181   10.2337    0.0000 C   0  0  0  0  0  0  0  0  0  0  0  0
  -13.1046   11.5109    0.0000 C   0  0  0  0  0  0  0  0  0  0  0  0
  -13.7969   12.8416    0.0000 C   0  0  0  0  0  0  0  0  0  0  0  0
  -14.3915   14.2187    0.0000 C   0  0  0  0  0  0  0  0  0  0  0  0
  -14.8851   15.6352    0.0000 C   0  0  0  0  0  0  0  0  0  0  0  0
  -15.2751   17.0836    0.0000 C   0  0  0  0  0  0  0  0  0  0  0  0
  -15.5597   18.5564    0.0000 C   0  0  0  0  0  0  0  0  0  0  0  0
  -15.7373   20.0458    0.0000 C   0  0  0  0  0  0  0  0  0  0  0  0
  -15.8069   21.5442    0.0000 C   0  0  0  0  0  0  0  0  0  0  0  0
  -15.7682   23.0437    0.0000 C   0  0  0  0  0  0  0  0  0  0  0  0
  -15.6214   24.5365    0.0000 C   0  0  0  0  0  0  0  0  0  0  0  0
  -15.3673   26.0148    0.0000 C   0  0  0  0  0  0  0  0  0  0  0  0
  -15.0072   27.4709    0.0000 C   0  0  0  0  0  0  0  0  0  0  0  0
  -14.5429   28.8973    0.0000 C   0  0  0  0  0  0  0  0  0  0  0  0
  -13.9769   30.2864    0.0000 C   0  0  0  0  0  0  0  0  0  0  0  0
  -13.3122   31.6311    0.0000 C   0  0  0  0  0  0  0  0  0  0  0  0
  -12.5522   32.9243    0.0000 C   0  0  0  0  0  0  0  0  0  0  0  0
  -11.7008   34.1593    0.0000 C   0  0  0  0  0  0  0  0  0  0  0  0
  -10.7626   35.3296    0.0000 C   0  0  0  0  0  0  0  0  0  0  0  0
   -9.7423   36.4292    0.0000 C   0  0  0  0  0  0  0  0  0  0  0  0
   -8.6454   37.4523    0.0000 C   0  0  0  0  0  0  0  0  0  0  0  0
   -7.4774   38.3935    0.0000 C   0  0  0  0  0  0  0  0  0  0  0  0
   -6.2447   39.2481    0.0000 C   0  0  0  0  0  0  0  0  0  0  0  0
   -4.9534   40.0114    0.0000 C   0  0  0  0  0  0  0  0  0  0  0  0
   -3.6105   40.6796    0.0000 C   0  0  0  0  0  0  0  0  0  0  0  0
   -2.2228   41.2492    0.0000 C   0  0  0  0  0  0  0  0  0  0  0  0
   -0.7977   41.7171    0.0000 C   0  0  0  0  0  0  0  0  0  0  0  0
    0.6575   42.0810    0.0000 C   0  0  0  0  0  0  0  0  0  0  0  0
    2.1352   42.3389    0.0000 C   0  0  0  0  0  0  0  0  0  0  0  0
    3.6276   42.4896    0.0000 C   0  0  0  0  0  0  0  0  0  0  0  0
    5.1270   42.5321    0.0000 C   0  0  0  0  0  0  0  0  0  0  0  0
    6.6255   42.4664    0.0000 C   0  0  0  0  0  0  0  0  0  0  0  0
    8.1155   42.2927    0.0000 C   0  0  0  0  0  0  0  0  0  0  0  0
    9.5889   42.0119    0.0000 C   0  0  0  0  0  0  0  0  0  0  0  0
   11.0383   41.6255    0.0000 C   0  0  0  0  0  0  0  0  0  0  0  0
   12.4561   41.1356    0.0000 C   0  0  0  0  0  0  0  0  0  0  0  0
   13.8347   40.5446    0.0000 C   0  0  0  0  0  0  0  0  0  0  0  0
   15.1672   39.8557    0.0000 C   0  0  0  0  0  0  0  0  0  0  0  0
   16.4465   39.0725    0.0000 C   0  0  0  0  0  0  0  0  0  0  0  0
   17.6659   38.1990    0.0000 C   0  0  0  0  0  0  0  0  0  0  0  0
   18.8191   37.2397    0.0000 C   0  0  0  0  0  0  0  0  0  0  0  0
   19.9000   36.1998    0.0000 C   0  0  0  0  0  0  0  0  0  0  0  0
   20.9032   35.0846    0.0000 C   0  0  0  0  0  0  0  0  0  0  0  0
   21.8232   33.8998    0.0000 C   0  0  0  0  0  0  0  0  0  0  0  0
   22.6553   32.6518    0.0000 C   0  0  0  0  0  0  0  0  0  0  0  0
   23.3953   31.3470    0.0000 C   0  0  0  0  0  0  0  0  0  0  0  0
   24.0391   29.9922    0.0000 C   0  0  0  0  0  0  0  0  0  0  0  0
   24.5835   28.5945    0.0000 C   0  0  0  0  0  0  0  0  0  0  0  0
   25.0257   27.1612    0.0000 C   0  0  0  0  0  0  0  0  0  0  0  0
   25.3632   25.6996    0.0000 C   0  0  0  0  0  0  0  0  0  0  0  0
   25.5944   24.2176    0.0000 C   0  0  0  0  0  0  0  0  0  0  0  0
   25.7181   22.7227    0.0000 C   0  0  0  0  0  0  0  0  0  0  0  0
   25.7336   21.2228    0.0000 C   0  0  0  0  0  0  0  0  0  0  0  0
   25.6408   19.7256    0.0000 C   0  0  0  0  0  0  0  0  0  0  0  0
   25.4402   18.2391    0.0000 C   0  0  0  0  0  0  0  0  0  0  0  0
   25.1329   16.7709    0.0000 C   0  0  0  0  0  0  0  0  0  0  0  0
   24.7204   15.3287    0.0000 C   0  0  0  0  0  0  0  0  0  0  0  0
   24.2049   13.9201    0.0000 C   0  0  0  0  0  0  0  0  0  0  0  0
   23.5892   12.5523    0.0000 C   0  0  0  0  0  0  0  0  0  0  0  0
   22.8763   11.2325    0.0000 C   0  0  0  0  0  0  0  0  0  0  0  0
   22.0701    9.9676    0.0000 C   0  0  0  0  0  0  0  0  0  0  0  0
   21.1747    8.7641    0.0000 C   0  0  0  0  0  0  0  0  0  0  0  0
   20.1948    7.6285    0.0000 C   0  0  0  0  0  0  0  0  0  0  0  0
   19.1355    6.5664    0.0000 C   0  0  0  0  0  0  0  0  0  0  0  0
   18.0024    5.5836    0.0000 C   0  0  0  0  0  0  0  0  0  0  0  0
   16.8012    4.6851    0.0000 C   0  0  0  0  0  0  0  0  0  0  0  0
   15.5384    3.8756    0.0000 C   0  0  0  0  0  0  0  0  0  0  0  0
   14.2205    3.1594    0.0000 C   0  0  0  0  0  0  0  0  0  0  0  0
   12.8543    2.5401    0.0000 C   0  0  0  0  0  0  0  0  0  0  0  0
   11.4470    2.0210    0.0000 C   0  0  0  0  0  0  0  0  0  0  0  0
   10.0058    1.6048    0.0000 C   0  0  0  0  0  0  0  0  0  0  0  0
    8.5385    1.2937    0.0000 C   0  0  0  0  0  0  0  0  0  0  0  0
    7.0525    1.0893    0.0000 C   0  0  0  0  0  0  0  0  0  0  0  0
    5.5556    0.9926    0.0000 C   0  0  0  0  0  0  0  0  0  0  0  0
    4.0556    1.0043    0.0000 C   0  0  0  0  0  0  0  0  0  0  0  0
    2.5604    1.1241    0.0000 C   0  0  0  0  0  0  0  0  0  0  0  0
    1.0777    1.3515    0.0000 C   0  0  0  0  0  0  0  0  0  0  0  0
    1.7286    0.0000    0.0000 C   0  0  0  0  0  0  0  0  0  0  0  0
    1.0777   -1.3515    0.0000 C   0  0  0  0  0  0  0  0  0  0  0  0
   -0.3846   -1.6852    0.0000 C   0  0  0  0  0  0  0  0  0  0  0  0
   -1.5574   -0.7500    0.0000 C   0  0  0  0  0  0  0  0  0  0  0  0
   -1.5574    0.7500    0.0000 C   0  0  0  0  0  0  0  0  0  0  0  0
   -0.3846    1.6852    0.0000 C   0  0  0  0  0  0  0  0  0  0  0  0
  1  2  1  0
  2  3  1  0
  3  4  1  0
  4  5  1  0
  5  6  1  0
  6  7  1  0
  7  8  1  0
  8  9  1  0
  9 10  1  0
 10 11  1  0
 11 12  1  0
 12 13  1  0
 13 14  1  0
 14 15  1  0
 15 16  1  0
 16 17  1  0
 17 18  1  0
 18 19  1  0
 19 20  1  0
 20 21  1  0
 21 22  1  0
 22 23  1  0
 23 24  1  0
 24 25  1  0
 25 26  1  0
 26 27  1  0
 27 28  1  0
 28 29  1  0
 29 30  1  0
 30 31  1  0
 31 32  1  0
 32 33  1  0
 33 34  1  0
 34 35  1  0
 35 36  1  0
 36 37  1  0
 37 38  1  0
 38 39  1  0
 39 40  1  0
 40 41  1  0
 41 42  1  0
 42 43  1  0
 43 44  1  0
 44 45  1  0
 45 46  1  0
 46 47  1  0
 47 48  1  0
 48 49  1  0
 49 50  1  0
 50 51  1  0
 51 52  1  0
 52 53  1  0
 53 54  1  0
 54 55  1  0
 55 56  1  0
 56 57  1  0
 57 58  1  0
 58 59  1  0
 59 60  1  0
 60 61  1  0
 61 62  1  0
 62 63  1  0
 63 64  1  0
 64 65  1  0
 65 66  1  0
 66 67  1  0
 67 68  1  0
 68 69  1  0
 69 70  1  0
 70 71  1  0
 71 72  1  0
 72 73  1  0
 73 74  1  0
 74 75  1  0
 75 76  1  0
 76 77  2  0
 77 78  1  0
 78 79  2  0
 79 80  1  0
 80 81  2  0
 81 82  1  0
 82 83  2  0
 83 84  1  0
 84 85  2  0
 85 86  1  0
 86 87  2  0
 87 88  1  0
 88 89  2  0
 89 90  1  0
 90 91  2  0
 91 92  1  0
 92 93  2  0
 93  2  1  0
 93 87  1  0
M  END
>  <Title>  (926) 
idABHRgen14

$$$$

     RDKit          2D

 15 14  0  0  0  0  0  0  0  0999 V2000
    0.0000    0.0000    0.0000 C   0  0  0  0  0  0  0  0  0  0  0  0
    1.2990    0.7500    0.0000 C   0  0  0  0  0  0  0  0  0  0  0  0
    2.5981   -0.0000    0.0000 C   0  0  0  0  0  0  0  0  0  0  0  0
    3.8971    0.7500    0.0000 C   0  0  0  0  0  0  0  0  0  0  0  0
    5.1962   -0.0000    0.0000 C   0  0  0  0  0  0  0  0  0  0  0  0
    6.4952    0.7500    0.0000 C   0  0  0  0  0  0  0  0  0  0  0  0
    7.7942   -0.0000    0.0000 C   0  0  0  0  0  0  0  0  0  0  0  0
    9.0933    0.7500    0.0000 C   0  0  0  0  0  0  0  0  0  0  0  0
   10.3923   -0.0000    0.0000 C   0  0  0  0  0  0  0  0  0  0  0  0
    9.0933    2.2500    0.0000 N   0  0  0  0  0  0  0  0  0  0  0  0
   10.3923    3.0000    0.0000 C   0  0  0  0  0  0  0  0  0  0  0  0
   11.6913    2.2500    0.0000 O   0  0  0  0  0  0  0  0  0  0  0  0
   10.3923    4.5000    0.0000 C   0  0  0  0  0  0  0  0  0  0  0  0
   11.6913    5.2500    0.0000 C   0  0  0  0  0  0  0  0  0  0  0  0
   11.6913    6.7500    0.0000 C   0  0  0  0  0  0  0  0  0  0  0  0
  1  2  1  0
  2  3  2  3
  3  4  1  0
  4  5  1  0
  5  6  1  0
  6  7  1  0
  7  8  1  0
  8  9  1  0
  8 10  1  0
 10 11  1  0
 11 12  2  0
 11 13  1  0
 13 14  1  0
 14 15  1  0
M  END
>  <Title>  (927) 
idABHSgen14

$$$$

     RDKit          2D

 39 43  0  0  0  0  0  0  0  0999 V2000
  -10.5000   -2.5981    0.0000 C   0  0  0  0  0  0  0  0  0  0  0  0
   -9.0000   -2.5981    0.0000 C   0  0  0  0  0  0  0  0  0  0  0  0
   -7.5000   -2.5981    0.0000 C   0  0  0  0  0  0  0  0  0  0  0  0
   -6.0000   -2.5981    0.0000 C   0  0  0  0  0  0  0  0  0  0  0  0
   -4.5000   -2.5981    0.0000 C   0  0  0  0  0  0  0  0  0  0  0  0
   -3.0000   -2.5981    0.0000 C   0  0  0  0  0  0  0  0  0  0  0  0
   -1.5000   -2.5981    0.0000 C   0  0  0  0  0  0  0  0  0  0  0  0
   -0.7500   -3.8971    0.0000 C   0  0  0  0  0  0  0  0  0  0  0  0
    0.7500   -3.8971    0.0000 C   0  0  0  0  0  0  0  0  0  0  0  0
    1.5000   -2.5981    0.0000 C   0  0  0  0  0  0  0  0  0  0  0  0
    3.0000   -2.5981    0.0000 C   0  0  0  0  0  0  0  0  0  0  0  0
    3.7500   -1.2990    0.0000 O   0  0  0  0  0  0  0  0  0  0  0  0
    3.7500   -3.8971    0.0000 N   0  0  0  0  0  0  0  0  0  0  0  0
    5.2500   -3.8971    0.0000 C   0  0  0  0  0  0  0  0  0  0  0  0
    6.1317   -2.6836    0.0000 N   0  0  0  0  0  0  0  0  0  0  0  0
    7.5583   -3.1471    0.0000 N   0  0  0  0  0  0  0  0  0  0  0  0
    7.5583   -4.6471    0.0000 N   0  0  0  0  0  0  0  0  0  0  0  0
    6.1317   -5.1106    0.0000 N   0  0  0  0  0  0  0  0  0  0  0  0
    5.6682   -6.5372    0.0000 N   0  0  0  0  0  0  0  0  0  0  0  0
    6.5498   -7.7508    0.0000 C   0  0  0  0  0  0  0  0  0  0  0  0
    5.6682   -8.9643    0.0000 C   0  0  0  0  0  0  0  0  0  0  0  0
    4.2416   -8.5008    0.0000 N   0  0  0  0  0  0  0  0  0  0  0  0
    3.0280   -9.3824    0.0000 C   0  0  0  0  0  0  0  0  0  0  0  0
    3.1848  -10.8742    0.0000 O   0  0  0  0  0  0  0  0  0  0  0  0
    1.6577   -8.7723    0.0000 N   0  0  0  0  0  0  0  0  0  0  0  0
    0.4442   -9.6540    0.0000 C   0  0  0  0  0  0  0  0  0  0  0  0
   -0.9261   -9.0439    0.0000 N   0  0  0  0  0  0  0  0  0  0  0  0
   -2.1396   -9.9256    0.0000 N   0  0  0  0  0  0  0  0  0  0  0  0
   -1.9829  -11.4174    0.0000 N   0  0  0  0  0  0  0  0  0  0  0  0
   -0.6125  -12.0275    0.0000 N   0  0  0  0  0  0  0  0  0  0  0  0
    0.6010  -11.1458    0.0000 N   0  0  0  0  0  0  0  0  0  0  0  0
    4.2416   -7.0008    0.0000 C   0  0  0  0  0  0  0  0  0  0  0  0
    3.0280   -6.1191    0.0000 O   0  0  0  0  0  0  0  0  0  0  0  0
    0.7500   -1.2990    0.0000 C   0  0  0  0  0  0  0  0  0  0  0  0
    1.5000    0.0000    0.0000 C   0  0  0  0  0  0  0  0  0  0  0  0
    0.7500    1.2990    0.0000 C   0  0  0  0  0  0  0  0  0  0  0  0
   -0.7500    1.2990    0.0000 C   0  0  0  0  0  0  0  0  0  0  0  0
   -1.5000    0.0000    0.0000 C   0  0  0  0  0  0  0  0  0  0  0  0
   -0.7500   -1.2990    0.0000 C   0  0  0  0  0  0  0  0  0  0  0  0
  1  2  3  0
  2  3  1  0
  3  4  3  0
  4  5  1  0
  5  6  3  0
  6  7  1  0
  7  8  2  0
  8  9  1  0
  9 10  2  0
 10 11  1  0
 11 12  2  0
 11 13  1  0
 13 14  1  0
 14 15  2  0
 15 16  1  0
 16 17  2  0
 17 18  1  0
 18 19  1  0
 19 20  1  0
 20 21  1  0
 21 22  1  0
 22 23  1  0
 23 24  2  0
 23 25  1  0
 25 26  1  0
 26 27  2  0
 27 28  1  0
 28 29  2  0
 29 30  1  0
 30 31  2  0
 22 32  1  0
 32 33  2  0
 10 34  1  0
 34 35  2  0
 35 36  1  0
 36 37  2  0
 37 38  1  0
 38 39  2  0
 39  7  1  0
 18 14  1  0
 32 19  1  0
 39 34  1  0
 31 26  1  0
M  END
>  <Title>  (928) 
idABHTgen14

$$$$

     RDKit          2D

 26 28  0  0  0  0  0  0  0  0999 V2000
    2.4373  -13.1941    0.0000 O   0  0  0  0  0  0  0  0  0  0  0  0
    3.7363  -12.4441    0.0000 C   0  0  0  0  0  0  0  0  0  0  0  0
    3.7363  -10.9441    0.0000 C   0  0  0  0  0  0  0  0  0  0  0  0
    2.4373  -10.1941    0.0000 C   0  0  0  0  0  0  0  0  0  0  0  0
    1.1382  -10.9441    0.0000 O   0  0  0  0  0  0  0  0  0  0  0  0
    2.4373   -8.6941    0.0000 N   0  0  0  0  0  0  0  0  0  0  0  0
    1.1382   -7.9441    0.0000 C   0  0  0  0  0  0  0  0  0  0  0  0
    0.7500   -6.4952    0.0000 C   0  0  0  0  0  0  0  0  0  0  0  0
    1.5000   -5.1962    0.0000 C   0  0  0  0  0  0  0  0  0  0  0  0
    0.7500   -3.8971    0.0000 C   0  0  0  0  0  0  0  0  0  0  0  0
   -0.7500   -3.8971    0.0000 O   0  0  0  0  0  0  0  0  0  0  0  0
    1.5000   -2.5981    0.0000 N   0  0  0  0  0  0  0  0  0  0  0  0
    0.7500   -1.2990    0.0000 C   0  0  0  0  0  0  0  0  0  0  0  0
    1.5000    0.0000    0.0000 N   0  0  0  0  0  0  0  0  0  0  0  0
    0.7500    1.2990    0.0000 N   0  0  0  0  0  0  0  0  0  0  0  0
   -0.7500    1.2990    0.0000 N   0  0  0  0  0  0  0  0  0  0  0  0
   -1.5000    0.0000    0.0000 N   0  0  0  0  0  0  0  0  0  0  0  0
   -0.7500   -1.2990    0.0000 N   0  0  0  0  0  0  0  0  0  0  0  0
   -0.6989   -6.8834    0.0000 C   0  0  0  0  0  0  0  0  0  0  0  0
   -0.3107   -8.3323    0.0000 C   0  0  0  0  0  0  0  0  0  0  0  0
    5.0353  -13.1941    0.0000 N   0  0  0  0  0  0  0  0  0  0  0  0
    5.0353  -14.6941    0.0000 C   0  0  0  0  0  0  0  0  0  0  0  0
    6.2489  -15.5758    0.0000 N   0  0  0  0  0  0  0  0  0  0  0  0
    5.7853  -17.0023    0.0000 C   0  0  0  0  0  0  0  0  0  0  0  0
    4.2853  -17.0023    0.0000 C   0  0  0  0  0  0  0  0  0  0  0  0
    3.8218  -15.5758    0.0000 C   0  0  0  0  0  0  0  0  0  0  0  0
  1  2  2  0
  2  3  1  0
  3  4  1  0
  4  5  1  0
  4  6  1  0
  6  7  1  0
  7  8  2  0
  8  9  1  0
  9 10  1  0
 10 11  2  0
 10 12  1  0
 12 13  1  0
 13 14  2  0
 14 15  1  0
 15 16  2  0
 16 17  1  0
 17 18  2  0
  8 19  1  0
 19 20  2  0
  2 21  1  0
 21 22  1  0
 22 23  2  0
 23 24  1  0
 24 25  2  0
 25 26  1  0
 20  7  1  0
 26 22  1  0
 18 13  1  0
M  END
>  <Title>  (929) 
idABHUgen14

$$$$

     RDKit          2D

 12 12  0  0  0  0  0  0  0  0999 V2000
    5.7098    1.2990    0.0000 C   0  0  0  0  0  0  0  0  0  0  0  0
    4.2098    1.2990    0.0000 C   0  0  0  0  0  0  0  0  0  0  0  0
    3.4598   -0.0000    0.0000 C   0  0  0  0  0  0  0  0  0  0  0  0
    4.2098   -1.2990    0.0000 C   0  0  0  0  0  0  0  0  0  0  0  0
    1.9598    0.0000    0.0000 C   0  0  0  0  0  0  0  0  0  0  0  0
    1.3858   -1.3858    0.0000 C   0  0  0  0  0  0  0  0  0  0  0  0
   -0.0000   -1.9598    0.0000 C   0  0  0  0  0  0  0  0  0  0  0  0
   -1.3858   -1.3858    0.0000 C   0  0  0  0  0  0  0  0  0  0  0  0
   -1.9598    0.0000    0.0000 C   0  0  0  0  0  0  0  0  0  0  0  0
   -1.3858    1.3858    0.0000 C   0  0  0  0  0  0  0  0  0  0  0  0
    0.0000    1.9598    0.0000 C   0  0  0  0  0  0  0  0  0  0  0  0
    1.3858    1.3858    0.0000 C   0  0  0  0  0  0  0  0  0  0  0  0
  1  2  1  0
  2  3  1  0
  3  4  1  0
  3  5  1  0
  5  6  1  0
  6  7  1  0
  7  8  1  0
  8  9  1  0
  9 10  1  0
 10 11  1  0
 11 12  1  0
 12  5  1  0
M  END
>  <Title>  (930) 
idABHVgen14

$$$$

     RDKit          2D

  6  5  0  0  0  0  0  0  0  0999 V2000
    0.0000    0.0000    0.0000 C   0  0  0  0  0  0  0  0  0  0  0  0
    1.2990    0.7500    0.0000 C   0  0  0  0  0  0  0  0  0  0  0  0
    2.5981   -0.0000    0.0000 N   0  0  0  0  0  0  0  0  0  0  0  0
    3.8971    0.7500    0.0000 C   0  0  0  0  0  0  0  0  0  0  0  0
    5.1962   -0.0000    0.0000 C   0  0  0  0  0  0  0  0  0  0  0  0
    3.8971    2.2500    0.0000 C   0  0  0  0  0  0  0  0  0  0  0  0
  1  2  2  0
  2  3  1  0
  3  4  1  0
  4  5  1  0
  4  6  1  0
M  END
>  <Title>  (931) 
idABHWgen14

$$$$

     RDKit          2D

 16 16  0  0  0  0  0  0  0  0999 V2000
    5.2500   -6.4952    0.0000 C   0  0  0  0  0  0  0  0  0  0  0  0
    6.0000   -5.1962    0.0000 C   0  0  0  0  0  0  0  0  0  0  0  0
    7.5000   -5.1962    0.0000 C   0  0  0  0  0  0  0  0  0  0  0  0
    5.2500   -3.8971    0.0000 C   0  0  0  0  0  0  0  0  0  0  0  0
    6.0000   -2.5981    0.0000 C   0  0  0  0  0  0  0  0  0  0  0  0
    7.5000   -2.5981    0.0000 C   0  0  0  0  0  0  0  0  0  0  0  0
    5.2500   -1.2990    0.0000 N   0  0  0  0  0  0  0  0  0  0  0  0
    3.7500   -1.2990    0.0000 C   0  0  0  0  0  0  0  0  0  0  0  0
    3.0000   -2.5981    0.0000 O   0  0  0  0  0  0  0  0  0  0  0  0
    3.0000    0.0000    0.0000 C   0  0  0  0  0  0  0  0  0  0  0  0
    1.5000    0.0000    0.0000 C   0  0  0  0  0  0  0  0  0  0  0  0
    0.7500   -1.2990    0.0000 C   0  0  0  0  0  0  0  0  0  0  0  0
   -0.7500   -1.2990    0.0000 S   0  0  0  0  0  0  0  0  0  0  0  0
   -1.5000    0.0000    0.0000 C   0  0  0  0  0  0  0  0  0  0  0  0
   -0.7500    1.2990    0.0000 C   0  0  0  0  0  0  0  0  0  0  0  0
    0.7500    1.2990    0.0000 C   0  0  0  0  0  0  0  0  0  0  0  0
  1  2  1  0
  2  3  1  0
  2  4  1  0
  4  5  1  0
  5  6  1  0
  5  7  1  0
  7  8  1  0
  8  9  2  0
  8 10  1  0
 10 11  1  0
 11 12  2  0
 12 13  1  0
 13 14  1  0
 14 15  1  0
 15 16  2  0
 16 11  1  0
M  END
>  <Title>  (932) 
idABHXgen14

$$$$

     RDKit          2D

  8  8  0  0  0  0  0  0  0  0999 V2000
    5.7760   -0.0000    0.0000 C   0  0  0  0  0  0  0  0  0  0  0  0
    4.2760   -0.0000    0.0000 C   0  0  0  0  0  0  0  0  0  0  0  0
    2.7760    0.0000    0.0000 C   0  0  0  0  0  0  0  0  0  0  0  0
    1.2760    0.0000    0.0000 C   0  0  0  0  0  0  0  0  0  0  0  0
    0.3943    1.2135    0.0000 C   0  0  0  0  0  0  0  0  0  0  0  0
   -1.0323    0.7500    0.0000 C   0  0  0  0  0  0  0  0  0  0  0  0
   -1.0323   -0.7500    0.0000 C   0  0  0  0  0  0  0  0  0  0  0  0
    0.3943   -1.2135    0.0000 C   0  0  0  0  0  0  0  0  0  0  0  0
  1  2  1  0
  2  3  3  0
  3  4  1  0
  4  5  2  0
  5  6  1  0
  6  7  1  0
  7  8  2  0
  8  4  1  0
M  END
>  <Title>  (933) 
idABHYgen14

$$$$

     RDKit          2D

 36 40  0  0  0  0  0  0  0  0999 V2000
   -3.1476   -2.1380    0.0000 C   0  0  0  0  0  0  0  0  0  0  0  0
   -1.6852   -2.4718    0.0000 C   0  0  0  0  0  0  0  0  0  0  0  0
   -1.3515   -3.9342    0.0000 C   0  0  0  0  0  0  0  0  0  0  0  0
   -0.0000   -4.5850    0.0000 C   0  0  0  0  0  0  0  0  0  0  0  0
    1.3515   -3.9342    0.0000 C   0  0  0  0  0  0  0  0  0  0  0  0
    1.6852   -2.4718    0.0000 C   0  0  0  0  0  0  0  0  0  0  0  0
    3.1476   -2.1380    0.0000 C   0  0  0  0  0  0  0  0  0  0  0  0
    3.5898   -0.7046    0.0000 O   0  0  0  0  0  0  0  0  0  0  0  0
    4.1679   -3.2376    0.0000 N   0  0  0  0  0  0  0  0  0  0  0  0
    5.6303   -2.9038    0.0000 C   0  0  0  0  0  0  0  0  0  0  0  0
    6.2198   -1.5245    0.0000 N   0  0  0  0  0  0  0  0  0  0  0  0
    7.7138   -1.6590    0.0000 N   0  0  0  0  0  0  0  0  0  0  0  0
    8.0476   -3.1214    0.0000 N   0  0  0  0  0  0  0  0  0  0  0  0
    6.7599   -3.8907    0.0000 N   0  0  0  0  0  0  0  0  0  0  0  0
    6.6254   -5.3847    0.0000 C   0  0  0  0  0  0  0  0  0  0  0  0
    7.7550   -6.3716    0.0000 C   0  0  0  0  0  0  0  0  0  0  0  0
    7.1655   -7.7509    0.0000 C   0  0  0  0  0  0  0  0  0  0  0  0
    5.6715   -7.6164    0.0000 C   0  0  0  0  0  0  0  0  0  0  0  0
    4.6846   -8.7460    0.0000 O   0  0  0  0  0  0  0  0  0  0  0  0
    3.2129   -8.4561    0.0000 C   0  0  0  0  0  0  0  0  0  0  0  0
    2.7281   -7.0366    0.0000 O   0  0  0  0  0  0  0  0  0  0  0  0
    2.2260   -9.5857    0.0000 N   0  0  0  0  0  0  0  0  0  0  0  0
    0.7543   -9.2959    0.0000 C   0  0  0  0  0  0  0  0  0  0  0  0
    0.2695   -7.8764    0.0000 N   0  0  0  0  0  0  0  0  0  0  0  0
   -1.2023   -7.5865    0.0000 N   0  0  0  0  0  0  0  0  0  0  0  0
   -2.1892   -8.7161    0.0000 N   0  0  0  0  0  0  0  0  0  0  0  0
   -1.7044  -10.1356    0.0000 N   0  0  0  0  0  0  0  0  0  0  0  0
   -0.2326  -10.4255    0.0000 N   0  0  0  0  0  0  0  0  0  0  0  0
    5.3378   -6.1540    0.0000 C   0  0  0  0  0  0  0  0  0  0  0  0
    3.9585   -5.5645    0.0000 O   0  0  0  0  0  0  0  0  0  0  0  0
    0.7500   -1.2990    0.0000 C   0  0  0  0  0  0  0  0  0  0  0  0
    1.5000    0.0000    0.0000 C   0  0  0  0  0  0  0  0  0  0  0  0
    0.7500    1.2990    0.0000 C   0  0  0  0  0  0  0  0  0  0  0  0
   -0.7500    1.2990    0.0000 C   0  0  0  0  0  0  0  0  0  0  0  0
   -1.5000    0.0000    0.0000 C   0  0  0  0  0  0  0  0  0  0  0  0
   -0.7500   -1.2990    0.0000 C   0  0  0  0  0  0  0  0  0  0  0  0
  1  2  1  0
  2  3  2  0
  3  4  1  0
  4  5  2  0
  5  6  1  0
  6  7  1  0
  7  8  2  0
  7  9  1  0
  9 10  1  0
 10 11  2  0
 11 12  1  0
 12 13  2  0
 13 14  1  0
 14 15  1  0
 15 16  2  0
 16 17  1  0
 17 18  2  0
 18 19  1  0
 19 20  1  0
 20 21  2  0
 20 22  1  0
 22 23  1  0
 23 24  2  0
 24 25  1  0
 25 26  2  0
 26 27  1  0
 27 28  2  0
 18 29  1  0
 29 30  2  0
  6 31  1  0
 31 32  2  0
 32 33  1  0
 33 34  2  0
 34 35  1  0
 35 36  2  0
 36  2  1  0
 14 10  1  0
 29 15  1  0
 36 31  1  0
 28 23  1  0
M  END
>  <Title>  (934) 
idABHZgen14

$$$$

     RDKit          2D

  9  9  0  0  0  0  0  0  0  0999 V2000
    5.2500   -1.2990    0.0000 C   0  0  0  0  0  0  0  0  0  0  0  0
    3.7500   -1.2990    0.0000 O   0  0  0  0  0  0  0  0  0  0  0  0
    3.0000    0.0000    0.0000 C   0  0  0  0  0  0  0  0  0  0  0  0
    1.5000    0.0000    0.0000 C   0  0  0  0  0  0  0  0  0  0  0  0
    0.7500   -1.2990    0.0000 C   0  0  0  0  0  0  0  0  0  0  0  0
   -0.7500   -1.2990    0.0000 C   0  0  0  0  0  0  0  0  0  0  0  0
   -1.5000    0.0000    0.0000 C   0  0  0  0  0  0  0  0  0  0  0  0
   -0.7500    1.2990    0.0000 N   0  0  0  0  0  0  0  0  0  0  0  0
    0.7500    1.2990    0.0000 C   0  0  0  0  0  0  0  0  0  0  0  0
  1  2  1  0
  2  3  1  0
  3  4  1  0
  4  5  2  0
  5  6  1  0
  6  7  2  0
  7  8  1  0
  8  9  2  0
  9  4  1  0
M  END
>  <Title>  (935) 
idABIAgen14

$$$$

     RDKit          2D

 13 13  0  0  0  0  0  0  0  0999 V2000
    7.5000   -2.5981    0.0000 C   0  0  0  0  0  0  0  0  0  0  0  0
    6.0000   -2.5981    0.0000 C   0  0  0  0  0  0  0  0  0  0  0  0
    5.2500   -3.8971    0.0000 C   0  0  0  0  0  0  0  0  0  0  0  0
    5.2500   -1.2990    0.0000 C   0  0  0  0  0  0  0  0  0  0  0  0
    6.0000    0.0000    0.0000 O   0  0  0  0  0  0  0  0  0  0  0  0
    3.7500   -1.2990    0.0000 N   0  0  0  0  0  0  0  0  0  0  0  0
    3.0000    0.0000    0.0000 C   0  0  0  0  0  0  0  0  0  0  0  0
    1.5000    0.0000    0.0000 C   0  0  0  0  0  0  0  0  0  0  0  0
    0.7500   -1.2990    0.0000 C   0  0  0  0  0  0  0  0  0  0  0  0
   -0.7500   -1.2990    0.0000 C   0  0  0  0  0  0  0  0  0  0  0  0
   -1.5000    0.0000    0.0000 C   0  0  0  0  0  0  0  0  0  0  0  0
   -0.7500    1.2990    0.0000 N   0  0  0  0  0  0  0  0  0  0  0  0
    0.7500    1.2990    0.0000 C   0  0  0  0  0  0  0  0  0  0  0  0
  1  2  1  0
  2  3  1  0
  2  4  1  0
  4  5  2  0
  4  6  1  0
  6  7  1  0
  7  8  1  0
  8  9  2  0
  9 10  1  0
 10 11  2  0
 11 12  1  0
 12 13  2  0
 13  8  1  0
M  END
>  <Title>  (936) 
idABIBgen14

$$$$

     RDKit          2D

 35 39  0  0  0  0  0  0  0  0999 V2000
   -3.1476   -2.1380    0.0000 C   0  0  0  0  0  0  0  0  0  0  0  0
   -1.6852   -2.4718    0.0000 C   0  0  0  0  0  0  0  0  0  0  0  0
   -1.3515   -3.9342    0.0000 C   0  0  0  0  0  0  0  0  0  0  0  0
   -0.0000   -4.5850    0.0000 C   0  0  0  0  0  0  0  0  0  0  0  0
    1.3515   -3.9342    0.0000 C   0  0  0  0  0  0  0  0  0  0  0  0
    1.6852   -2.4718    0.0000 C   0  0  0  0  0  0  0  0  0  0  0  0
    3.1476   -2.1380    0.0000 C   0  0  0  0  0  0  0  0  0  0  0  0
    3.5898   -0.7046    0.0000 O   0  0  0  0  0  0  0  0  0  0  0  0
    4.1679   -3.2376    0.0000 N   0  0  0  0  0  0  0  0  0  0  0  0
    5.6303   -2.9038    0.0000 C   0  0  0  0  0  0  0  0  0  0  0  0
    6.2198   -1.5245    0.0000 N   0  0  0  0  0  0  0  0  0  0  0  0
    7.7138   -1.6590    0.0000 N   0  0  0  0  0  0  0  0  0  0  0  0
    8.0476   -3.1214    0.0000 N   0  0  0  0  0  0  0  0  0  0  0  0
    6.7599   -3.8907    0.0000 N   0  0  0  0  0  0  0  0  0  0  0  0
    6.6254   -5.3847    0.0000 C   0  0  0  0  0  0  0  0  0  0  0  0
    7.7550   -6.3716    0.0000 C   0  0  0  0  0  0  0  0  0  0  0  0
    7.1655   -7.7509    0.0000 C   0  0  0  0  0  0  0  0  0  0  0  0
    5.6715   -7.6164    0.0000 C   0  0  0  0  0  0  0  0  0  0  0  0
    4.6846   -8.7460    0.0000 C   0  0  0  0  0  0  0  0  0  0  0  0
    5.1694  -10.1655    0.0000 O   0  0  0  0  0  0  0  0  0  0  0  0
    3.2129   -8.4561    0.0000 N   0  0  0  0  0  0  0  0  0  0  0  0
    2.2260   -9.5857    0.0000 C   0  0  0  0  0  0  0  0  0  0  0  0
    0.7543   -9.2959    0.0000 N   0  0  0  0  0  0  0  0  0  0  0  0
   -0.2326  -10.4255    0.0000 N   0  0  0  0  0  0  0  0  0  0  0  0
    0.2522  -11.8450    0.0000 N   0  0  0  0  0  0  0  0  0  0  0  0
    1.7239  -12.1348    0.0000 N   0  0  0  0  0  0  0  0  0  0  0  0
    2.7108  -11.0052    0.0000 N   0  0  0  0  0  0  0  0  0  0  0  0
    5.3378   -6.1540    0.0000 C   0  0  0  0  0  0  0  0  0  0  0  0
    3.9585   -5.5645    0.0000 O   0  0  0  0  0  0  0  0  0  0  0  0
    0.7500   -1.2990    0.0000 C   0  0  0  0  0  0  0  0  0  0  0  0
    1.5000    0.0000    0.0000 C   0  0  0  0  0  0  0  0  0  0  0  0
    0.7500    1.2990    0.0000 C   0  0  0  0  0  0  0  0  0  0  0  0
   -0.7500    1.2990    0.0000 C   0  0  0  0  0  0  0  0  0  0  0  0
   -1.5000    0.0000    0.0000 C   0  0  0  0  0  0  0  0  0  0  0  0
   -0.7500   -1.2990    0.0000 C   0  0  0  0  0  0  0  0  0  0  0  0
  1  2  1  0
  2  3  1  0
  3  4  1  0
  4  5  1  0
  5  6  2  0
  6  7  1  0
  7  8  2  0
  7  9  1  0
  9 10  1  0
 10 11  2  0
 11 12  1  0
 12 13  2  0
 13 14  1  0
 14 15  1  0
 15 16  2  0
 16 17  1  0
 17 18  2  0
 18 19  1  0
 19 20  2  0
 19 21  1  0
 21 22  1  0
 22 23  2  0
 23 24  1  0
 24 25  2  0
 25 26  1  0
 26 27  2  0
 18 28  1  0
 28 29  2  0
  6 30  1  0
 30 31  2  0
 31 32  1  0
 32 33  2  0
 33 34  1  0
 34 35  2  0
 35  2  1  0
 14 10  1  0
 28 15  1  0
 35 30  1  0
 27 22  1  0
M  END
>  <Title>  (937) 
idABICgen14

$$$$

     RDKit          2D

 12 11  0  0  0  0  0  0  0  0999 V2000
    0.0000    0.0000    0.0000 C   0  0  0  0  0  0  0  0  0  0  0  0
    1.2990    0.7500    0.0000 C   0  0  0  0  0  0  0  0  0  0  0  0
    2.5981   -0.0000    0.0000 C   0  0  0  0  0  0  0  0  0  0  0  0
    3.8971    0.7500    0.0000 C   0  0  0  0  0  0  0  0  0  0  0  0
    5.1962   -0.0000    0.0000 C   0  0  0  0  0  0  0  0  0  0  0  0
    5.1962   -1.5000    0.0000 O   0  0  0  0  0  0  0  0  0  0  0  0
    6.4952    0.7500    0.0000 N   0  0  0  0  0  0  0  0  0  0  0  0
    7.7942   -0.0000    0.0000 C   0  0  0  0  0  0  0  0  0  0  0  0
    9.0933    0.7500    0.0000 C   0  0  0  0  0  0  0  0  0  0  0  0
    7.7942   -1.5000    0.0000 C   0  0  0  0  0  0  0  0  0  0  0  0
    9.0933   -2.2500    0.0000 C   0  0  0  0  0  0  0  0  0  0  0  0
    9.0933   -3.7500    0.0000 C   0  0  0  0  0  0  0  0  0  0  0  0
  1  2  2  0
  2  3  1  0
  3  4  1  0
  4  5  1  0
  5  6  2  0
  5  7  1  0
  7  8  1  0
  8  9  1  0
  8 10  1  0
 10 11  1  0
 11 12  1  0
M  END
>  <Title>  (938) 
idABIDgen14

$$$$

     RDKit          2D

 10  9  0  0  0  0  0  0  0  0999 V2000
    0.0000    0.0000    0.0000 C   0  0  0  0  0  0  0  0  0  0  0  0
    1.2990    0.7500    0.0000 N   0  0  0  0  0  0  0  0  0  0  0  0
    2.5981   -0.0000    0.0000 C   0  0  0  0  0  0  0  0  0  0  0  0
    3.8971    0.7500    0.0000 C   0  0  0  0  0  0  0  0  0  0  0  0
    2.5981   -1.5000    0.0000 C   0  0  0  0  0  0  0  0  0  0  0  0
    3.8971   -2.2500    0.0000 C   0  0  0  0  0  0  0  0  0  0  0  0
    3.8971   -3.7500    0.0000 N   0  0  0  0  0  0  0  0  0  0  0  0
    5.1962   -4.5000    0.0000 C   0  0  0  0  0  0  0  0  0  0  0  0
    5.1962   -6.0000    0.0000 C   0  0  0  0  0  0  0  0  0  0  0  0
    6.4952   -3.7500    0.0000 O   0  0  0  0  0  0  0  0  0  0  0  0
  1  2  1  0
  2  3  1  0
  3  4  1  0
  3  5  1  0
  5  6  1  0
  6  7  1  0
  7  8  1  0
  8  9  1  0
  8 10  2  0
M  END
>  <Title>  (939) 
idABIEgen14

$$$$

     RDKit          2D

 12 11  0  0  0  0  0  0  0  0999 V2000
    0.0000    0.0000    0.0000 C   0  0  0  0  0  0  0  0  0  0  0  0
    1.2990    0.7500    0.0000 C   0  0  0  0  0  0  0  0  0  0  0  0
    2.5981   -0.0000    0.0000 C   0  0  0  0  0  0  0  0  0  0  0  0
    3.8971    0.7500    0.0000 C   0  0  0  0  0  0  0  0  0  0  0  0
    5.1962   -0.0000    0.0000 C   0  0  0  0  0  0  0  0  0  0  0  0
    6.4952    0.7500    0.0000 C   0  0  0  0  0  0  0  0  0  0  0  0
    7.7942   -0.0000    0.0000 N   0  0  0  0  0  0  0  0  0  0  0  0
    9.0933    0.7500    0.0000 C   0  0  0  0  0  0  0  0  0  0  0  0
    9.0933    2.2500    0.0000 O   0  0  0  0  0  0  0  0  0  0  0  0
   10.3923   -0.0000    0.0000 C   0  0  0  0  0  0  0  0  0  0  0  0
   11.6913    0.7500    0.0000 C   0  0  0  0  0  0  0  0  0  0  0  0
   12.9904   -0.0000    0.0000 C   0  0  0  0  0  0  0  0  0  0  0  0
  1  2  1  0
  2  3  1  0
  3  4  1  0
  4  5  2  3
  5  6  1  0
  6  7  1  0
  7  8  1  0
  8  9  2  0
  8 10  1  0
 10 11  1  0
 11 12  1  0
M  END
>  <Title>  (940) 
idABIFgen14

$$$$

     RDKit          2D

 34 38  0  0  0  0  0  0  0  0999 V2000
   10.0051   -0.5013    0.0000 C   0  0  0  0  0  0  0  0  0  0  0  0
    8.5134   -0.6581    0.0000 C   0  0  0  0  0  0  0  0  0  0  0  0
    7.7634   -1.9571    0.0000 N   0  0  0  0  0  0  0  0  0  0  0  0
    6.2961   -1.6453    0.0000 C   0  0  0  0  0  0  0  0  0  0  0  0
    5.1814   -2.6490    0.0000 N   0  0  0  0  0  0  0  0  0  0  0  0
    5.4933   -4.1162    0.0000 C   0  0  0  0  0  0  0  0  0  0  0  0
    6.9199   -4.5797    0.0000 O   0  0  0  0  0  0  0  0  0  0  0  0
    4.3786   -5.1199    0.0000 C   0  0  0  0  0  0  0  0  0  0  0  0
    4.6904   -6.5871    0.0000 C   0  0  0  0  0  0  0  0  0  0  0  0
    6.0607   -7.1972    0.0000 N   0  0  0  0  0  0  0  0  0  0  0  0
    5.9040   -8.6890    0.0000 N   0  0  0  0  0  0  0  0  0  0  0  0
    4.4367   -9.0009    0.0000 N   0  0  0  0  0  0  0  0  0  0  0  0
    3.6867   -7.7018    0.0000 N   0  0  0  0  0  0  0  0  0  0  0  0
    2.1950   -7.5450    0.0000 N   0  0  0  0  0  0  0  0  0  0  0  0
    1.4450   -6.2460    0.0000 C   0  0  0  0  0  0  0  0  0  0  0  0
   -0.0223   -6.5579    0.0000 C   0  0  0  0  0  0  0  0  0  0  0  0
   -0.1791   -8.0497    0.0000 N   0  0  0  0  0  0  0  0  0  0  0  0
   -1.4781   -8.7997    0.0000 C   0  0  0  0  0  0  0  0  0  0  0  0
   -1.4781  -10.2997    0.0000 O   0  0  0  0  0  0  0  0  0  0  0  0
   -2.7771   -8.0497    0.0000 N   0  0  0  0  0  0  0  0  0  0  0  0
   -4.0762   -8.7997    0.0000 C   0  0  0  0  0  0  0  0  0  0  0  0
   -4.0762  -10.2997    0.0000 N   0  0  0  0  0  0  0  0  0  0  0  0
   -5.3752  -11.0497    0.0000 N   0  0  0  0  0  0  0  0  0  0  0  0
   -6.6743  -10.2997    0.0000 N   0  0  0  0  0  0  0  0  0  0  0  0
   -6.6743   -8.7997    0.0000 N   0  0  0  0  0  0  0  0  0  0  0  0
   -5.3752   -8.0497    0.0000 N   0  0  0  0  0  0  0  0  0  0  0  0
    1.1913   -8.6598    0.0000 C   0  0  0  0  0  0  0  0  0  0  0  0
    1.5031  -10.1270    0.0000 O   0  0  0  0  0  0  0  0  0  0  0  0
    6.1393   -0.1535    0.0000 C   0  0  0  0  0  0  0  0  0  0  0  0
    4.9258    0.7282    0.0000 C   0  0  0  0  0  0  0  0  0  0  0  0
    5.0826    2.2200    0.0000 C   0  0  0  0  0  0  0  0  0  0  0  0
    6.4529    2.8301    0.0000 C   0  0  0  0  0  0  0  0  0  0  0  0
    7.6664    1.9484    0.0000 C   0  0  0  0  0  0  0  0  0  0  0  0
    7.5097    0.4566    0.0000 C   0  0  0  0  0  0  0  0  0  0  0  0
  1  2  1  0
  2  3  2  0
  3  4  1  0
  4  5  1  0
  5  6  1  0
  6  7  2  0
  6  8  1  0
  8  9  1  0
  9 10  2  0
 10 11  1  0
 11 12  2  0
 12 13  1  0
 13 14  1  0
 14 15  1  0
 15 16  1  0
 16 17  1  0
 17 18  1  0
 18 19  2  0
 18 20  1  0
 20 21  1  0
 21 22  2  0
 22 23  1  0
 23 24  2  0
 24 25  1  0
 25 26  2  0
 17 27  1  0
 27 28  2  0
  4 29  1  0
 29 30  2  0
 30 31  1  0
 31 32  2  0
 32 33  1  0
 33 34  2  0
 34  2  1  0
 13  9  1  0
 27 14  1  0
 34 29  1  0
 26 21  1  0
M  END
>  <Title>  (941) 
idABIGgen14

$$$$

     RDKit          2D

119120  0  0  0  0  0  0  0  0999 V2000
    9.0967   -4.3771    0.0000 C   0  0  0  0  0  0  0  0  0  0  0  0
    9.8906   -4.4489    0.0000 C   0  0  0  0  0  0  0  0  0  0  0  0
    9.8173   -5.9472    0.0000 C   0  0  0  0  0  0  0  0  0  0  0  0
    9.8681   -7.4463    0.0000 C   0  0  0  0  0  0  0  0  0  0  0  0
   10.0424   -8.9361    0.0000 C   0  0  0  0  0  0  0  0  0  0  0  0
   10.3392  -10.4065    0.0000 C   0  0  0  0  0  0  0  0  0  0  0  0
   10.7564  -11.8473    0.0000 C   0  0  0  0  0  0  0  0  0  0  0  0
   11.2911  -13.2487    0.0000 C   0  0  0  0  0  0  0  0  0  0  0  0
   11.9398  -14.6012    0.0000 C   0  0  0  0  0  0  0  0  0  0  0  0
   12.6979  -15.8956    0.0000 C   0  0  0  0  0  0  0  0  0  0  0  0
   13.5603  -17.1228    0.0000 C   0  0  0  0  0  0  0  0  0  0  0  0
   14.5211  -18.2747    0.0000 C   0  0  0  0  0  0  0  0  0  0  0  0
   15.5738  -19.3433    0.0000 C   0  0  0  0  0  0  0  0  0  0  0  0
   16.7111  -20.3213    0.0000 C   0  0  0  0  0  0  0  0  0  0  0  0
   17.9253  -21.2021    0.0000 C   0  0  0  0  0  0  0  0  0  0  0  0
   19.2080  -21.9796    0.0000 C   0  0  0  0  0  0  0  0  0  0  0  0
   20.5506  -22.6485    0.0000 C   0  0  0  0  0  0  0  0  0  0  0  0
   21.9439  -23.2043    0.0000 C   0  0  0  0  0  0  0  0  0  0  0  0
   23.3783  -23.6431    0.0000 C   0  0  0  0  0  0  0  0  0  0  0  0
   24.8440  -23.9619    0.0000 C   0  0  0  0  0  0  0  0  0  0  0  0
   26.3310  -24.1586    0.0000 C   0  0  0  0  0  0  0  0  0  0  0  0
   27.8292  -24.2319    0.0000 C   0  0  0  0  0  0  0  0  0  0  0  0
   29.3284  -24.1812    0.0000 C   0  0  0  0  0  0  0  0  0  0  0  0
   30.8182  -24.0068    0.0000 C   0  0  0  0  0  0  0  0  0  0  0  0
   32.2886  -23.7100    0.0000 C   0  0  0  0  0  0  0  0  0  0  0  0
   33.7294  -23.2928    0.0000 C   0  0  0  0  0  0  0  0  0  0  0  0
   35.1308  -22.7581    0.0000 C   0  0  0  0  0  0  0  0  0  0  0  0
   36.4833  -22.1094    0.0000 C   0  0  0  0  0  0  0  0  0  0  0  0
   37.7776  -21.3513    0.0000 C   0  0  0  0  0  0  0  0  0  0  0  0
   39.0049  -20.4889    0.0000 C   0  0  0  0  0  0  0  0  0  0  0  0
   40.1568  -19.5281    0.0000 C   0  0  0  0  0  0  0  0  0  0  0  0
   41.2254  -18.4754    0.0000 C   0  0  0  0  0  0  0  0  0  0  0  0
   42.2034  -17.3381    0.0000 C   0  0  0  0  0  0  0  0  0  0  0  0
   43.0842  -16.1239    0.0000 C   0  0  0  0  0  0  0  0  0  0  0  0
   43.8617  -14.8412    0.0000 C   0  0  0  0  0  0  0  0  0  0  0  0
   44.5306  -13.4986    0.0000 C   0  0  0  0  0  0  0  0  0  0  0  0
   45.0864  -12.1053    0.0000 C   0  0  0  0  0  0  0  0  0  0  0  0
   45.5251  -10.6709    0.0000 C   0  0  0  0  0  0  0  0  0  0  0  0
   45.8440   -9.2052    0.0000 C   0  0  0  0  0  0  0  0  0  0  0  0
   46.0407   -7.7182    0.0000 C   0  0  0  0  0  0  0  0  0  0  0  0
   46.1140   -6.2200    0.0000 C   0  0  0  0  0  0  0  0  0  0  0  0
   46.0632   -4.7208    0.0000 C   0  0  0  0  0  0  0  0  0  0  0  0
   45.8889   -3.2310    0.0000 C   0  0  0  0  0  0  0  0  0  0  0  0
   45.5921   -1.7606    0.0000 C   0  0  0  0  0  0  0  0  0  0  0  0
   45.1749   -0.3198    0.0000 C   0  0  0  0  0  0  0  0  0  0  0  0
   44.6402    1.0816    0.0000 C   0  0  0  0  0  0  0  0  0  0  0  0
   43.9915    2.4341    0.0000 C   0  0  0  0  0  0  0  0  0  0  0  0
   43.2334    3.7284    0.0000 C   0  0  0  0  0  0  0  0  0  0  0  0
   42.3710    4.9557    0.0000 C   0  0  0  0  0  0  0  0  0  0  0  0
   41.4102    6.1076    0.0000 C   0  0  0  0  0  0  0  0  0  0  0  0
   40.3575    7.1762    0.0000 C   0  0  0  0  0  0  0  0  0  0  0  0
   39.2202    8.1542    0.0000 C   0  0  0  0  0  0  0  0  0  0  0  0
   38.0060    9.0350    0.0000 C   0  0  0  0  0  0  0  0  0  0  0  0
   36.7233    9.8125    0.0000 C   0  0  0  0  0  0  0  0  0  0  0  0
   35.3807   10.4814    0.0000 C   0  0  0  0  0  0  0  0  0  0  0  0
   33.9874   11.0371    0.0000 C   0  0  0  0  0  0  0  0  0  0  0  0
   32.5530   11.4759    0.0000 C   0  0  0  0  0  0  0  0  0  0  0  0
   31.0873   11.7948    0.0000 C   0  0  0  0  0  0  0  0  0  0  0  0
   29.6003   11.9915    0.0000 C   0  0  0  0  0  0  0  0  0  0  0  0
   28.1020   12.0648    0.0000 C   0  0  0  0  0  0  0  0  0  0  0  0
   26.6029   12.0140    0.0000 C   0  0  0  0  0  0  0  0  0  0  0  0
   25.1131   11.8397    0.0000 C   0  0  0  0  0  0  0  0  0  0  0  0
   23.6427   11.5429    0.0000 C   0  0  0  0  0  0  0  0  0  0  0  0
   22.2019   11.1257    0.0000 C   0  0  0  0  0  0  0  0  0  0  0  0
   20.8005   10.5910    0.0000 C   0  0  0  0  0  0  0  0  0  0  0  0
   19.4480    9.9423    0.0000 C   0  0  0  0  0  0  0  0  0  0  0  0
   18.1536    9.1842    0.0000 C   0  0  0  0  0  0  0  0  0  0  0  0
   16.9264    8.3218    0.0000 C   0  0  0  0  0  0  0  0  0  0  0  0
   15.7745    7.3610    0.0000 C   0  0  0  0  0  0  0  0  0  0  0  0
   14.7059    6.3083    0.0000 C   0  0  0  0  0  0  0  0  0  0  0  0
   13.7279    5.1710    0.0000 C   0  0  0  0  0  0  0  0  0  0  0  0
   12.8471    3.9568    0.0000 C   0  0  0  0  0  0  0  0  0  0  0  0
   12.0696    2.6741    0.0000 C   0  0  0  0  0  0  0  0  0  0  0  0
   11.4007    1.3315    0.0000 C   0  0  0  0  0  0  0  0  0  0  0  0
   10.8449   -0.0618    0.0000 C   0  0  0  0  0  0  0  0  0  0  0  0
   10.4061   -1.4962    0.0000 C   0  0  0  0  0  0  0  0  0  0  0  0
    9.8132   -0.0000    0.0000 C   0  0  0  0  0  0  0  0  0  0  0  0
    9.7133    1.3966    0.0000 C   0  0  0  0  0  0  0  0  0  0  0  0
    9.4157    2.7647    0.0000 C   0  0  0  0  0  0  0  0  0  0  0  0
    8.9264    4.0765    0.0000 C   0  0  0  0  0  0  0  0  0  0  0  0
    8.2554    5.3054    0.0000 C   0  0  0  0  0  0  0  0  0  0  0  0
    7.4163    6.4263    0.0000 C   0  0  0  0  0  0  0  0  0  0  0  0
    6.4263    7.4163    0.0000 C   0  0  0  0  0  0  0  0  0  0  0  0
    5.3054    8.2554    0.0000 C   0  0  0  0  0  0  0  0  0  0  0  0
    4.0765    8.9264    0.0000 C   0  0  0  0  0  0  0  0  0  0  0  0
    2.7647    9.4157    0.0000 C   0  0  0  0  0  0  0  0  0  0  0  0
    1.3966    9.7133    0.0000 C   0  0  0  0  0  0  0  0  0  0  0  0
    0.0000    9.8132    0.0000 C   0  0  0  0  0  0  0  0  0  0  0  0
   -1.3966    9.7133    0.0000 C   0  0  0  0  0  0  0  0  0  0  0  0
   -2.7647    9.4157    0.0000 C   0  0  0  0  0  0  0  0  0  0  0  0
   -4.0765    8.9264    0.0000 C   0  0  0  0  0  0  0  0  0  0  0  0
   -5.3054    8.2554    0.0000 C   0  0  0  0  0  0  0  0  0  0  0  0
   -6.4263    7.4163    0.0000 C   0  0  0  0  0  0  0  0  0  0  0  0
   -7.4163    6.4263    0.0000 C   0  0  0  0  0  0  0  0  0  0  0  0
   -8.2554    5.3054    0.0000 C   0  0  0  0  0  0  0  0  0  0  0  0
   -8.9264    4.0765    0.0000 C   0  0  0  0  0  0  0  0  0  0  0  0
   -9.4157    2.7647    0.0000 C   0  0  0  0  0  0  0  0  0  0  0  0
   -9.7133    1.3966    0.0000 C   0  0  0  0  0  0  0  0  0  0  0  0
   -9.8132    0.0000    0.0000 C   0  0  0  0  0  0  0  0  0  0  0  0
   -9.7133   -1.3966    0.0000 C   0  0  0  0  0  0  0  0  0  0  0  0
   -9.4157   -2.7647    0.0000 C   0  0  0  0  0  0  0  0  0  0  0  0
   -8.9264   -4.0765    0.0000 C   0  0  0  0  0  0  0  0  0  0  0  0
   -8.2554   -5.3054    0.0000 C   0  0  0  0  0  0  0  0  0  0  0  0
   -7.4163   -6.4263    0.0000 C   0  0  0  0  0  0  0  0  0  0  0  0
   -6.4263   -7.4163    0.0000 C   0  0  0  0  0  0  0  0  0  0  0  0
   -5.3054   -8.2554    0.0000 C   0  0  0  0  0  0  0  0  0  0  0  0
   -4.0765   -8.9264    0.0000 C   0  0  0  0  0  0  0  0  0  0  0  0
   -2.7647   -9.4157    0.0000 C   0  0  0  0  0  0  0  0  0  0  0  0
   -1.3966   -9.7133    0.0000 C   0  0  0  0  0  0  0  0  0  0  0  0
   -0.0000   -9.8132    0.0000 C   0  0  0  0  0  0  0  0  0  0  0  0
    1.3966   -9.7133    0.0000 C   0  0  0  0  0  0  0  0  0  0  0  0
    2.7647   -9.4157    0.0000 C   0  0  0  0  0  0  0  0  0  0  0  0
    4.0765   -8.9264    0.0000 C   0  0  0  0  0  0  0  0  0  0  0  0
    5.3054   -8.2554    0.0000 C   0  0  0  0  0  0  0  0  0  0  0  0
    6.4263   -7.4163    0.0000 C   0  0  0  0  0  0  0  0  0  0  0  0
    7.4163   -6.4263    0.0000 C   0  0  0  0  0  0  0  0  0  0  0  0
    8.2554   -5.3054    0.0000 C   0  0  0  0  0  0  0  0  0  0  0  0
    8.9264   -4.0765    0.0000 C   0  0  0  0  0  0  0  0  0  0  0  0
   10.0873   -2.9619    0.0000 C   0  0  0  0  0  0  0  0  0  0  0  0
  1  2  1  0
  2  3  1  0
  3  4  1  0
  4  5  1  0
  5  6  1  0
  6  7  1  0
  7  8  1  0
  8  9  1  0
  9 10  1  0
 10 11  1  0
 11 12  1  0
 12 13  1  0
 13 14  1  0
 14 15  1  0
 15 16  1  0
 16 17  1  0
 17 18  1  0
 18 19  1  0
 19 20  1  0
 20 21  1  0
 21 22  1  0
 22 23  1  0
 23 24  1  0
 24 25  1  0
 25 26  1  0
 26 27  1  0
 27 28  1  0
 28 29  1  0
 29 30  1  0
 30 31  1  0
 31 32  1  0
 32 33  1  0
 33 34  1  0
 34 35  1  0
 35 36  1  0
 36 37  1  0
 37 38  1  0
 38 39  1  0
 39 40  1  0
 40 41  1  0
 41 42  1  0
 42 43  1  0
 43 44  1  0
 44 45  1  0
 45 46  1  0
 46 47  1  0
 47 48  1  0
 48 49  1  0
 49 50  1  0
 50 51  1  0
 51 52  1  0
 52 53  1  0
 53 54  1  0
 54 55  1  0
 55 56  1  0
 56 57  1  0
 57 58  1  0
 58 59  1  0
 59 60  1  0
 60 61  1  0
 61 62  1  0
 62 63  1  0
 63 64  1  0
 64 65  1  0
 65 66  1  0
 66 67  1  0
 67 68  1  0
 68 69  1  0
 69 70  1  0
 70 71  1  0
 71 72  1  0
 72 73  1  0
 73 74  1  0
 74 75  1  0
 75 76  1  0
 76 77  1  0
 77 78  1  0
 78 79  1  0
 79 80  1  0
 80 81  1  0
 81 82  1  0
 82 83  1  0
 83 84  1  0
 84 85  1  0
 85 86  1  0
 86 87  1  0
 87 88  1  0
 88 89  1  0
 89 90  1  0
 90 91  1  0
 91 92  1  0
 92 93  1  0
 93 94  1  0
 94 95  1  0
 95 96  1  0
 96 97  1  0
 97 98  1  0
 98 99  1  0
 99100  1  0
100101  1  0
101102  1  0
102103  1  0
103104  1  0
104105  1  0
105106  1  0
106107  1  0
107108  1  0
108109  1  0
109110  1  0
110111  1  0
111112  1  0
112113  1  0
113114  1  0
114115  2  0
115116  1  0
116117  2  0
117118  1  0
118119  2  0
119  2  1  0
119 76  1  0
M  END
>  <Title>  (942) 
idABIHgen14

$$$$

     RDKit          2D

 18 20  0  0  0  0  0  0  0  0999 V2000
   -3.1476   -2.1380    0.0000 C   0  0  0  0  0  0  0  0  0  0  0  0
   -1.6852   -2.4718    0.0000 C   0  0  0  0  0  0  0  0  0  0  0  0
   -1.3515   -3.9342    0.0000 C   0  0  0  0  0  0  0  0  0  0  0  0
   -0.0000   -4.5850    0.0000 C   0  0  0  0  0  0  0  0  0  0  0  0
    1.3515   -3.9342    0.0000 C   0  0  0  0  0  0  0  0  0  0  0  0
    1.6852   -2.4718    0.0000 N   0  0  0  0  0  0  0  0  0  0  0  0
    3.1476   -2.1380    0.0000 C   0  0  0  0  0  0  0  0  0  0  0  0
    4.1679   -3.2376    0.0000 C   0  0  0  0  0  0  0  0  0  0  0  0
    5.6303   -2.9038    0.0000 C   0  0  0  0  0  0  0  0  0  0  0  0
    6.0724   -1.4704    0.0000 C   0  0  0  0  0  0  0  0  0  0  0  0
    5.0522   -0.3709    0.0000 C   0  0  0  0  0  0  0  0  0  0  0  0
    3.5898   -0.7046    0.0000 C   0  0  0  0  0  0  0  0  0  0  0  0
    0.7500   -1.2990    0.0000 C   0  0  0  0  0  0  0  0  0  0  0  0
    1.5000    0.0000    0.0000 C   0  0  0  0  0  0  0  0  0  0  0  0
    0.7500    1.2990    0.0000 C   0  0  0  0  0  0  0  0  0  0  0  0
   -0.7500    1.2990    0.0000 C   0  0  0  0  0  0  0  0  0  0  0  0
   -1.5000    0.0000    0.0000 C   0  0  0  0  0  0  0  0  0  0  0  0
   -0.7500   -1.2990    0.0000 C   0  0  0  0  0  0  0  0  0  0  0  0
  1  2  1  0
  2  3  1  0
  3  4  1  0
  4  5  1  0
  5  6  1  0
  6  7  1  0
  7  8  2  0
  8  9  1  0
  9 10  2  0
 10 11  1  0
 11 12  2  0
  6 13  1  0
 13 14  2  0
 14 15  1  0
 15 16  2  0
 16 17  1  0
 17 18  2  0
 18  2  1  0
 12  7  1  0
 18 13  1  0
M  END
>  <Title>  (943) 
idABIIgen14

$$$$

     RDKit          2D

 13 13  0  0  0  0  0  0  0  0999 V2000
    9.7500   -3.8971    0.0000 C   0  0  0  0  0  0  0  0  0  0  0  0
    8.2500   -3.8971    0.0000 C   0  0  0  0  0  0  0  0  0  0  0  0
    7.5000   -2.5981    0.0000 C   0  0  0  0  0  0  0  0  0  0  0  0
    6.0000   -2.5981    0.0000 C   0  0  0  0  0  0  0  0  0  0  0  0
    5.2500   -1.2990    0.0000 C   0  0  0  0  0  0  0  0  0  0  0  0
    3.7500   -1.2990    0.0000 C   0  0  0  0  0  0  0  0  0  0  0  0
    3.0000    0.0000    0.0000 C   0  0  0  0  0  0  0  0  0  0  0  0
    1.5000    0.0000    0.0000 C   0  0  0  0  0  0  0  0  0  0  0  0
    0.7500   -1.2990    0.0000 C   0  0  0  0  0  0  0  0  0  0  0  0
   -0.7500   -1.2990    0.0000 C   0  0  0  0  0  0  0  0  0  0  0  0
   -1.5000    0.0000    0.0000 C   0  0  0  0  0  0  0  0  0  0  0  0
   -0.7500    1.2990    0.0000 N   0  0  0  0  0  0  0  0  0  0  0  0
    0.7500    1.2990    0.0000 C   0  0  0  0  0  0  0  0  0  0  0  0
  1  2  1  0
  2  3  1  0
  3  4  1  0
  4  5  2  3
  5  6  1  0
  6  7  1  0
  7  8  1  0
  8  9  2  0
  9 10  1  0
 10 11  2  0
 11 12  1  0
 12 13  2  0
 13  8  1  0
M  END
>  <Title>  (944) 
idABIJgen14

$$$$

     RDKit          2D

  8  7  0  0  0  0  0  0  0  0999 V2000
    0.0000    0.0000    0.0000 C   0  0  0  0  0  0  0  0  0  0  0  0
    1.2990    0.7500    0.0000 N   0  0  0  0  0  0  0  0  0  0  0  0
    2.5981   -0.0000    0.0000 C   0  0  0  0  0  0  0  0  0  0  0  0
    3.8971    0.7500    0.0000 C   0  0  0  0  0  0  0  0  0  0  0  0
    2.5981   -1.5000    0.0000 C   0  0  0  0  0  0  0  0  0  0  0  0
    3.8971   -2.2500    0.0000 C   0  0  0  0  0  0  0  0  0  0  0  0
    3.8971   -3.7500    0.0000 C   0  0  0  0  0  0  0  0  0  0  0  0
    5.1962   -1.5000    0.0000 C   0  0  0  0  0  0  0  0  0  0  0  0
  1  2  1  0
  2  3  1  0
  3  4  1  0
  3  5  1  0
  5  6  1  0
  6  7  1  0
  6  8  1  0
M  END
>  <Title>  (945) 
idABIKgen14

$$$$

     RDKit          2D

109110  0  0  0  0  0  0  0  0999 V2000
   13.4251    4.5098    0.0000 C   0  0  0  0  0  0  0  0  0  0  0  0
   14.2217    4.4796    0.0000 C   0  0  0  0  0  0  0  0  0  0  0  0
   14.3743    5.9718    0.0000 C   0  0  0  0  0  0  0  0  0  0  0  0
   14.7165    7.4323    0.0000 C   0  0  0  0  0  0  0  0  0  0  0  0
   15.2427    8.8370    0.0000 C   0  0  0  0  0  0  0  0  0  0  0  0
   15.9442   10.1628    0.0000 C   0  0  0  0  0  0  0  0  0  0  0  0
   16.8095   11.3881    0.0000 C   0  0  0  0  0  0  0  0  0  0  0  0
   17.8243   12.4927    0.0000 C   0  0  0  0  0  0  0  0  0  0  0  0
   18.9721   13.4584    0.0000 C   0  0  0  0  0  0  0  0  0  0  0  0
   20.2339   14.2694    0.0000 C   0  0  0  0  0  0  0  0  0  0  0  0
   21.5891   14.9124    0.0000 C   0  0  0  0  0  0  0  0  0  0  0  0
   23.0154   15.3768    0.0000 C   0  0  0  0  0  0  0  0  0  0  0  0
   24.4894   15.6551    0.0000 C   0  0  0  0  0  0  0  0  0  0  0  0
   25.9868   15.7425    0.0000 C   0  0  0  0  0  0  0  0  0  0  0  0
   27.4832   15.6378    0.0000 C   0  0  0  0  0  0  0  0  0  0  0  0
   28.9538   15.3425    0.0000 C   0  0  0  0  0  0  0  0  0  0  0  0
   30.3747   14.8616    0.0000 C   0  0  0  0  0  0  0  0  0  0  0  0
   31.7223   14.2030    0.0000 C   0  0  0  0  0  0  0  0  0  0  0  0
   32.9747   13.3774    0.0000 C   0  0  0  0  0  0  0  0  0  0  0  0
   34.1112   12.3985    0.0000 C   0  0  0  0  0  0  0  0  0  0  0  0
   35.1133   11.2823    0.0000 C   0  0  0  0  0  0  0  0  0  0  0  0
   35.9643   10.0471    0.0000 C   0  0  0  0  0  0  0  0  0  0  0  0
   36.6504    8.7132    0.0000 C   0  0  0  0  0  0  0  0  0  0  0  0
   37.1603    7.3025    0.0000 C   0  0  0  0  0  0  0  0  0  0  0  0
   37.4856    5.8382    0.0000 C   0  0  0  0  0  0  0  0  0  0  0  0
   37.6210    4.3444    0.0000 C   0  0  0  0  0  0  0  0  0  0  0  0
   37.5643    2.8454    0.0000 C   0  0  0  0  0  0  0  0  0  0  0  0
   37.3163    1.3661    0.0000 C   0  0  0  0  0  0  0  0  0  0  0  0
   36.8813   -0.0694    0.0000 C   0  0  0  0  0  0  0  0  0  0  0  0
   36.2662   -1.4375    0.0000 C   0  0  0  0  0  0  0  0  0  0  0  0
   35.4812   -2.7157    0.0000 C   0  0  0  0  0  0  0  0  0  0  0  0
   34.5392   -3.8830    0.0000 C   0  0  0  0  0  0  0  0  0  0  0  0
   33.4556   -4.9203    0.0000 C   0  0  0  0  0  0  0  0  0  0  0  0
   32.2483   -5.8105    0.0000 C   0  0  0  0  0  0  0  0  0  0  0  0
   30.9371   -6.5390    0.0000 C   0  0  0  0  0  0  0  0  0  0  0  0
   29.5435   -7.0939    0.0000 C   0  0  0  0  0  0  0  0  0  0  0  0
   28.0904   -7.4660    0.0000 C   0  0  0  0  0  0  0  0  0  0  0  0
   26.6016   -7.6492    0.0000 C   0  0  0  0  0  0  0  0  0  0  0  0
   25.1017   -7.6405    0.0000 C   0  0  0  0  0  0  0  0  0  0  0  0
   23.6151   -7.4401    0.0000 C   0  0  0  0  0  0  0  0  0  0  0  0
   22.1664   -7.0512    0.0000 C   0  0  0  0  0  0  0  0  0  0  0  0
   20.7793   -6.4803    0.0000 C   0  0  0  0  0  0  0  0  0  0  0  0
   19.4766   -5.7367    0.0000 C   0  0  0  0  0  0  0  0  0  0  0  0
   18.2797   -4.8326    0.0000 C   0  0  0  0  0  0  0  0  0  0  0  0
   17.2082   -3.7829    0.0000 C   0  0  0  0  0  0  0  0  0  0  0  0
   16.2798   -2.6047    0.0000 C   0  0  0  0  0  0  0  0  0  0  0  0
   15.5096   -1.3175    0.0000 C   0  0  0  0  0  0  0  0  0  0  0  0
   14.9104    0.0576    0.0000 C   0  0  0  0  0  0  0  0  0  0  0  0
   14.4919    1.4980    0.0000 C   0  0  0  0  0  0  0  0  0  0  0  0
   13.8691   -0.0000    0.0000 C   0  0  0  0  0  0  0  0  0  0  0  0
   13.7956   -1.4260    0.0000 C   0  0  0  0  0  0  0  0  0  0  0  0
   13.5759   -2.8370    0.0000 C   0  0  0  0  0  0  0  0  0  0  0  0
   13.2122   -4.2178    0.0000 C   0  0  0  0  0  0  0  0  0  0  0  0
   12.7085   -5.5539    0.0000 C   0  0  0  0  0  0  0  0  0  0  0  0
   12.0701   -6.8312    0.0000 C   0  0  0  0  0  0  0  0  0  0  0  0
   11.3037   -8.0361    0.0000 C   0  0  0  0  0  0  0  0  0  0  0  0
   10.4175   -9.1557    0.0000 C   0  0  0  0  0  0  0  0  0  0  0  0
    9.4209  -10.1783    0.0000 C   0  0  0  0  0  0  0  0  0  0  0  0
    8.3244  -11.0931    0.0000 C   0  0  0  0  0  0  0  0  0  0  0  0
    7.1397  -11.8902    0.0000 C   0  0  0  0  0  0  0  0  0  0  0  0
    5.8793  -12.5613    0.0000 C   0  0  0  0  0  0  0  0  0  0  0  0
    4.5566  -13.0992    0.0000 C   0  0  0  0  0  0  0  0  0  0  0  0
    3.1856  -13.4983    0.0000 C   0  0  0  0  0  0  0  0  0  0  0  0
    1.7808  -13.7543    0.0000 C   0  0  0  0  0  0  0  0  0  0  0  0
    0.3571  -13.8645    0.0000 C   0  0  0  0  0  0  0  0  0  0  0  0
   -1.0704  -13.8278    0.0000 C   0  0  0  0  0  0  0  0  0  0  0  0
   -2.4865  -13.6444    0.0000 C   0  0  0  0  0  0  0  0  0  0  0  0
   -3.8762  -13.3164    0.0000 C   0  0  0  0  0  0  0  0  0  0  0  0
   -5.2249  -12.8473    0.0000 C   0  0  0  0  0  0  0  0  0  0  0  0
   -6.5182  -12.2420    0.0000 C   0  0  0  0  0  0  0  0  0  0  0  0
   -7.7423  -11.5069    0.0000 C   0  0  0  0  0  0  0  0  0  0  0  0
   -8.8845  -10.6498    0.0000 C   0  0  0  0  0  0  0  0  0  0  0  0
   -9.9324   -9.6799    0.0000 C   0  0  0  0  0  0  0  0  0  0  0  0
  -10.8750   -8.6073    0.0000 C   0  0  0  0  0  0  0  0  0  0  0  0
  -11.7024   -7.4435    0.0000 C   0  0  0  0  0  0  0  0  0  0  0  0
  -12.4057   -6.2008    0.0000 C   0  0  0  0  0  0  0  0  0  0  0  0
  -12.9776   -4.8924    0.0000 C   0  0  0  0  0  0  0  0  0  0  0  0
  -13.4118   -3.5321    0.0000 C   0  0  0  0  0  0  0  0  0  0  0  0
  -13.7039   -2.1343    0.0000 C   0  0  0  0  0  0  0  0  0  0  0  0
  -13.8507   -0.7140    0.0000 C   0  0  0  0  0  0  0  0  0  0  0  0
  -13.8507    0.7140    0.0000 C   0  0  0  0  0  0  0  0  0  0  0  0
  -13.7039    2.1343    0.0000 C   0  0  0  0  0  0  0  0  0  0  0  0
  -13.4118    3.5321    0.0000 C   0  0  0  0  0  0  0  0  0  0  0  0
  -12.9776    4.8924    0.0000 C   0  0  0  0  0  0  0  0  0  0  0  0
  -12.4057    6.2008    0.0000 C   0  0  0  0  0  0  0  0  0  0  0  0
  -11.7024    7.4435    0.0000 C   0  0  0  0  0  0  0  0  0  0  0  0
  -10.8750    8.6073    0.0000 C   0  0  0  0  0  0  0  0  0  0  0  0
   -9.9324    9.6799    0.0000 C   0  0  0  0  0  0  0  0  0  0  0  0
   -8.8845   10.6498    0.0000 C   0  0  0  0  0  0  0  0  0  0  0  0
   -7.7423   11.5069    0.0000 C   0  0  0  0  0  0  0  0  0  0  0  0
   -6.5182   12.2420    0.0000 C   0  0  0  0  0  0  0  0  0  0  0  0
   -5.2249   12.8473    0.0000 C   0  0  0  0  0  0  0  0  0  0  0  0
   -3.8762   13.3164    0.0000 C   0  0  0  0  0  0  0  0  0  0  0  0
   -2.4865   13.6444    0.0000 C   0  0  0  0  0  0  0  0  0  0  0  0
   -1.0704   13.8278    0.0000 C   0  0  0  0  0  0  0  0  0  0  0  0
    0.3571   13.8645    0.0000 C   0  0  0  0  0  0  0  0  0  0  0  0
    1.7808   13.7543    0.0000 C   0  0  0  0  0  0  0  0  0  0  0  0
    3.1856   13.4983    0.0000 C   0  0  0  0  0  0  0  0  0  0  0  0
    4.5566   13.0992    0.0000 C   0  0  0  0  0  0  0  0  0  0  0  0
    5.8793   12.5613    0.0000 C   0  0  0  0  0  0  0  0  0  0  0  0
    7.1397   11.8902    0.0000 C   0  0  0  0  0  0  0  0  0  0  0  0
    8.3244   11.0931    0.0000 C   0  0  0  0  0  0  0  0  0  0  0  0
    9.4209   10.1783    0.0000 C   0  0  0  0  0  0  0  0  0  0  0  0
   10.4175    9.1557    0.0000 C   0  0  0  0  0  0  0  0  0  0  0  0
   11.3037    8.0361    0.0000 C   0  0  0  0  0  0  0  0  0  0  0  0
   12.0701    6.8312    0.0000 C   0  0  0  0  0  0  0  0  0  0  0  0
   12.7085    5.5539    0.0000 C   0  0  0  0  0  0  0  0  0  0  0  0
   13.2122    4.2178    0.0000 C   0  0  0  0  0  0  0  0  0  0  0  0
   14.2611    2.9801    0.0000 C   0  0  0  0  0  0  0  0  0  0  0  0
  1  2  1  0
  2  3  1  0
  3  4  1  0
  4  5  1  0
  5  6  1  0
  6  7  1  0
  7  8  1  0
  8  9  1  0
  9 10  1  0
 10 11  1  0
 11 12  1  0
 12 13  1  0
 13 14  1  0
 14 15  1  0
 15 16  1  0
 16 17  1  0
 17 18  1  0
 18 19  1  0
 19 20  1  0
 20 21  1  0
 21 22  1  0
 22 23  1  0
 23 24  1  0
 24 25  1  0
 25 26  1  0
 26 27  1  0
 27 28  1  0
 28 29  1  0
 29 30  1  0
 30 31  1  0
 31 32  1  0
 32 33  1  0
 33 34  1  0
 34 35  1  0
 35 36  1  0
 36 37  1  0
 37 38  1  0
 38 39  1  0
 39 40  1  0
 40 41  1  0
 41 42  1  0
 42 43  1  0
 43 44  1  0
 44 45  1  0
 45 46  1  0
 46 47  1  0
 47 48  1  0
 48 49  1  0
 49 50  1  0
 50 51  1  0
 51 52  1  0
 52 53  1  0
 53 54  1  0
 54 55  1  0
 55 56  1  0
 56 57  1  0
 57 58  1  0
 58 59  1  0
 59 60  1  0
 60 61  1  0
 61 62  1  0
 62 63  1  0
 63 64  1  0
 64 65  1  0
 65 66  1  0
 66 67  1  0
 67 68  1  0
 68 69  1  0
 69 70  1  0
 70 71  1  0
 71 72  1  0
 72 73  1  0
 73 74  1  0
 74 75  1  0
 75 76  1  0
 76 77  1  0
 77 78  1  0
 78 79  1  0
 79 80  1  0
 80 81  1  0
 81 82  1  0
 82 83  1  0
 83 84  1  0
 84 85  1  0
 85 86  1  0
 86 87  1  0
 87 88  1  0
 88 89  1  0
 89 90  1  0
 90 91  1  0
 91 92  1  0
 92 93  1  0
 93 94  1  0
 94 95  1  0
 95 96  1  0
 96 97  2  0
 97 98  1  0
 98 99  2  0
 99100  1  0
100101  2  0
101102  1  0
102103  2  0
103104  1  0
104105  2  0
105106  1  0
106107  2  0
107108  1  0
108109  2  0
109  2  1  0
109 49  1  0
M  END
>  <Title>  (946) 
idABILgen14

$$$$

     RDKit          2D

 25 28  0  0  0  0  0  0  0  0999 V2000
   -2.6401   -3.1891    0.0000 C   0  0  0  0  0  0  0  0  0  0  0  0
   -1.2135   -2.7256    0.0000 C   0  0  0  0  0  0  0  0  0  0  0  0
   -0.0000   -3.6073    0.0000 C   0  0  0  0  0  0  0  0  0  0  0  0
    1.2135   -2.7256    0.0000 C   0  0  0  0  0  0  0  0  0  0  0  0
    2.6401   -3.1891    0.0000 C   0  0  0  0  0  0  0  0  0  0  0  0
    3.7548   -2.1855    0.0000 O   0  0  0  0  0  0  0  0  0  0  0  0
    2.9520   -4.6564    0.0000 N   0  0  0  0  0  0  0  0  0  0  0  0
    4.3786   -5.1199    0.0000 C   0  0  0  0  0  0  0  0  0  0  0  0
    5.5921   -4.2382    0.0000 N   0  0  0  0  0  0  0  0  0  0  0  0
    6.8056   -5.1199    0.0000 N   0  0  0  0  0  0  0  0  0  0  0  0
    6.3421   -6.5465    0.0000 N   0  0  0  0  0  0  0  0  0  0  0  0
    4.8421   -6.5465    0.0000 N   0  0  0  0  0  0  0  0  0  0  0  0
    3.9604   -7.7600    0.0000 C   0  0  0  0  0  0  0  0  0  0  0  0
    2.4686   -7.6032    0.0000 C   0  0  0  0  0  0  0  0  0  0  0  0
    1.5869   -8.8167    0.0000 C   0  0  0  0  0  0  0  0  0  0  0  0
    2.1971  -10.1871    0.0000 C   0  0  0  0  0  0  0  0  0  0  0  0
    1.3154  -11.4006    0.0000 O   0  0  0  0  0  0  0  0  0  0  0  0
    3.6888  -10.3438    0.0000 C   0  0  0  0  0  0  0  0  0  0  0  0
    4.5705   -9.1303    0.0000 C   0  0  0  0  0  0  0  0  0  0  0  0
    0.7500   -1.2990    0.0000 C   0  0  0  0  0  0  0  0  0  0  0  0
    1.5000    0.0000    0.0000 C   0  0  0  0  0  0  0  0  0  0  0  0
    0.7500    1.2990    0.0000 C   0  0  0  0  0  0  0  0  0  0  0  0
   -0.7500    1.2990    0.0000 C   0  0  0  0  0  0  0  0  0  0  0  0
   -1.5000    0.0000    0.0000 C   0  0  0  0  0  0  0  0  0  0  0  0
   -0.7500   -1.2990    0.0000 C   0  0  0  0  0  0  0  0  0  0  0  0
  1  2  1  0
  2  3  1  0
  3  4  2  0
  4  5  1  0
  5  6  2  0
  5  7  1  0
  7  8  1  0
  8  9  2  0
  9 10  1  0
 10 11  2  0
 11 12  1  0
 12 13  1  0
 13 14  2  0
 14 15  1  0
 15 16  2  0
 16 17  1  0
 16 18  1  0
 18 19  2  0
  4 20  1  0
 20 21  2  0
 21 22  1  0
 22 23  2  0
 23 24  1  0
 24 25  2  0
 25  2  1  0
 12  8  1  0
 19 13  1  0
 25 20  1  0
M  END
>  <Title>  (947) 
idABIMgen14

$$$$

     RDKit          2D

109110  0  0  0  0  0  0  0  0999 V2000
   -2.1503   -1.0898    0.0000 C   0  0  0  0  0  0  0  0  0  0  0  0
   -2.4840    0.3726    0.0000 C   0  0  0  0  0  0  0  0  0  0  0  0
   -3.9558    0.0827    0.0000 C   0  0  0  0  0  0  0  0  0  0  0  0
   -5.4422   -0.1186    0.0000 C   0  0  0  0  0  0  0  0  0  0  0  0
   -6.9380   -0.2307    0.0000 C   0  0  0  0  0  0  0  0  0  0  0  0
   -8.4378   -0.2531    0.0000 C   0  0  0  0  0  0  0  0  0  0  0  0
   -9.9363   -0.1859    0.0000 C   0  0  0  0  0  0  0  0  0  0  0  0
  -11.4281   -0.0291    0.0000 C   0  0  0  0  0  0  0  0  0  0  0  0
  -12.9078    0.2167    0.0000 C   0  0  0  0  0  0  0  0  0  0  0  0
  -14.3702    0.5505    0.0000 C   0  0  0  0  0  0  0  0  0  0  0  0
  -15.8100    0.9711    0.0000 C   0  0  0  0  0  0  0  0  0  0  0  0
  -17.2221    1.4771    0.0000 C   0  0  0  0  0  0  0  0  0  0  0  0
  -18.6014    2.0666    0.0000 C   0  0  0  0  0  0  0  0  0  0  0  0
  -19.9430    2.7376    0.0000 C   0  0  0  0  0  0  0  0  0  0  0  0
  -21.2420    3.4876    0.0000 C   0  0  0  0  0  0  0  0  0  0  0  0
  -22.4939    4.3139    0.0000 C   0  0  0  0  0  0  0  0  0  0  0  0
  -23.6941    5.2137    0.0000 C   0  0  0  0  0  0  0  0  0  0  0  0
  -24.8383    6.1836    0.0000 C   0  0  0  0  0  0  0  0  0  0  0  0
  -25.9225    7.2202    0.0000 C   0  0  0  0  0  0  0  0  0  0  0  0
  -26.9428    8.3197    0.0000 C   0  0  0  0  0  0  0  0  0  0  0  0
  -27.8954    9.4784    0.0000 C   0  0  0  0  0  0  0  0  0  0  0  0
  -28.7771   10.6919    0.0000 C   0  0  0  0  0  0  0  0  0  0  0  0
  -29.5846   11.9560    0.0000 C   0  0  0  0  0  0  0  0  0  0  0  0
  -30.3151   13.2661    0.0000 C   0  0  0  0  0  0  0  0  0  0  0  0
  -30.9660   14.6175    0.0000 C   0  0  0  0  0  0  0  0  0  0  0  0
  -31.5348   16.0055    0.0000 C   0  0  0  0  0  0  0  0  0  0  0  0
  -32.0196   17.4250    0.0000 C   0  0  0  0  0  0  0  0  0  0  0  0
  -32.4187   18.8709    0.0000 C   0  0  0  0  0  0  0  0  0  0  0  0
  -32.7305   20.3382    0.0000 C   0  0  0  0  0  0  0  0  0  0  0  0
  -32.9541   21.8214    0.0000 C   0  0  0  0  0  0  0  0  0  0  0  0
  -33.0886   23.3154    0.0000 C   0  0  0  0  0  0  0  0  0  0  0  0
  -33.1334   24.8147    0.0000 C   0  0  0  0  0  0  0  0  0  0  0  0
  -33.0886   26.3140    0.0000 C   0  0  0  0  0  0  0  0  0  0  0  0
  -32.9541   27.8080    0.0000 C   0  0  0  0  0  0  0  0  0  0  0  0
  -32.7305   29.2912    0.0000 C   0  0  0  0  0  0  0  0  0  0  0  0
  -32.4187   30.7584    0.0000 C   0  0  0  0  0  0  0  0  0  0  0  0
  -32.0196   32.2044    0.0000 C   0  0  0  0  0  0  0  0  0  0  0  0
  -31.5348   33.6239    0.0000 C   0  0  0  0  0  0  0  0  0  0  0  0
  -30.9660   35.0118    0.0000 C   0  0  0  0  0  0  0  0  0  0  0  0
  -30.3151   36.3633    0.0000 C   0  0  0  0  0  0  0  0  0  0  0  0
  -29.5846   37.6734    0.0000 C   0  0  0  0  0  0  0  0  0  0  0  0
  -28.7771   38.9375    0.0000 C   0  0  0  0  0  0  0  0  0  0  0  0
  -27.8954   40.1510    0.0000 C   0  0  0  0  0  0  0  0  0  0  0  0
  -26.9428   41.3096    0.0000 C   0  0  0  0  0  0  0  0  0  0  0  0
  -25.9225   42.4092    0.0000 C   0  0  0  0  0  0  0  0  0  0  0  0
  -24.8383   43.4458    0.0000 C   0  0  0  0  0  0  0  0  0  0  0  0
  -23.6941   44.4157    0.0000 C   0  0  0  0  0  0  0  0  0  0  0  0
  -22.4939   45.3154    0.0000 C   0  0  0  0  0  0  0  0  0  0  0  0
  -21.2420   46.1418    0.0000 C   0  0  0  0  0  0  0  0  0  0  0  0
  -19.9430   46.8918    0.0000 C   0  0  0  0  0  0  0  0  0  0  0  0
  -18.6014   47.5628    0.0000 C   0  0  0  0  0  0  0  0  0  0  0  0
  -17.2221   48.1523    0.0000 C   0  0  0  0  0  0  0  0  0  0  0  0
  -15.8100   48.6583    0.0000 C   0  0  0  0  0  0  0  0  0  0  0  0
  -14.3702   49.0789    0.0000 C   0  0  0  0  0  0  0  0  0  0  0  0
  -12.9078   49.4127    0.0000 C   0  0  0  0  0  0  0  0  0  0  0  0
  -11.4281   49.6584    0.0000 C   0  0  0  0  0  0  0  0  0  0  0  0
   -9.9363   49.8152    0.0000 C   0  0  0  0  0  0  0  0  0  0  0  0
   -8.4378   49.8825    0.0000 C   0  0  0  0  0  0  0  0  0  0  0  0
   -6.9380   49.8601    0.0000 C   0  0  0  0  0  0  0  0  0  0  0  0
   -5.4422   49.7480    0.0000 C   0  0  0  0  0  0  0  0  0  0  0  0
   -3.9558   49.5466    0.0000 C   0  0  0  0  0  0  0  0  0  0  0  0
   -2.4840   49.2568    0.0000 C   0  0  0  0  0  0  0  0  0  0  0  0
   -1.0323   48.8794    0.0000 C   0  0  0  0  0  0  0  0  0  0  0  0
    0.3943   48.4159    0.0000 C   0  0  0  0  0  0  0  0  0  0  0  0
    1.7906   47.8678    0.0000 C   0  0  0  0  0  0  0  0  0  0  0  0
    3.1516   47.2373    0.0000 C   0  0  0  0  0  0  0  0  0  0  0  0
    4.4725   46.5265    0.0000 C   0  0  0  0  0  0  0  0  0  0  0  0
    5.7486   45.7380    0.0000 C   0  0  0  0  0  0  0  0  0  0  0  0
    6.9751   44.8746    0.0000 C   0  0  0  0  0  0  0  0  0  0  0  0
    8.1479   43.9393    0.0000 C   0  0  0  0  0  0  0  0  0  0  0  0
    9.2626   42.9356    0.0000 C   0  0  0  0  0  0  0  0  0  0  0  0
   10.3153   41.8671    0.0000 C   0  0  0  0  0  0  0  0  0  0  0  0
   11.3022   40.7375    0.0000 C   0  0  0  0  0  0  0  0  0  0  0  0
   12.2198   39.5508    0.0000 C   0  0  0  0  0  0  0  0  0  0  0  0
   13.0648   38.3115    0.0000 C   0  0  0  0  0  0  0  0  0  0  0  0
   13.8341   37.0238    0.0000 C   0  0  0  0  0  0  0  0  0  0  0  0
   14.5251   35.6924    0.0000 C   0  0  0  0  0  0  0  0  0  0  0  0
   15.1352   34.3221    0.0000 C   0  0  0  0  0  0  0  0  0  0  0  0
   15.6623   32.9178    0.0000 C   0  0  0  0  0  0  0  0  0  0  0  0
   16.1044   31.4844    0.0000 C   0  0  0  0  0  0  0  0  0  0  0  0
   16.4600   30.0272    0.0000 C   0  0  0  0  0  0  0  0  0  0  0  0
   16.7278   28.5513    0.0000 C   0  0  0  0  0  0  0  0  0  0  0  0
   16.9069   27.0620    0.0000 C   0  0  0  0  0  0  0  0  0  0  0  0
   16.9966   25.5647    0.0000 C   0  0  0  0  0  0  0  0  0  0  0  0
   16.9966   24.0647    0.0000 C   0  0  0  0  0  0  0  0  0  0  0  0
   16.9069   22.5674    0.0000 C   0  0  0  0  0  0  0  0  0  0  0  0
   16.7278   21.0781    0.0000 C   0  0  0  0  0  0  0  0  0  0  0  0
   16.4600   19.6022    0.0000 C   0  0  0  0  0  0  0  0  0  0  0  0
   16.1044   18.1450    0.0000 C   0  0  0  0  0  0  0  0  0  0  0  0
   15.6623   16.7116    0.0000 C   0  0  0  0  0  0  0  0  0  0  0  0
   15.1352   15.3073    0.0000 C   0  0  0  0  0  0  0  0  0  0  0  0
   14.5251   13.9369    0.0000 C   0  0  0  0  0  0  0  0  0  0  0  0
   13.8341   12.6056    0.0000 C   0  0  0  0  0  0  0  0  0  0  0  0
   13.0648   11.3179    0.0000 C   0  0  0  0  0  0  0  0  0  0  0  0
   12.2198   10.0785    0.0000 C   0  0  0  0  0  0  0  0  0  0  0  0
   11.3022    8.8919    0.0000 C   0  0  0  0  0  0  0  0  0  0  0  0
   10.3153    7.7623    0.0000 C   0  0  0  0  0  0  0  0  0  0  0  0
    9.2626    6.6938    0.0000 C   0  0  0  0  0  0  0  0  0  0  0  0
    8.1479    5.6901    0.0000 C   0  0  0  0  0  0  0  0  0  0  0  0
    6.9751    4.7548    0.0000 C   0  0  0  0  0  0  0  0  0  0  0  0
    5.7486    3.8914    0.0000 C   0  0  0  0  0  0  0  0  0  0  0  0
    4.4725    3.1029    0.0000 C   0  0  0  0  0  0  0  0  0  0  0  0
    3.1516    2.3921    0.0000 C   0  0  0  0  0  0  0  0  0  0  0  0
    1.7906    1.7615    0.0000 C   0  0  0  0  0  0  0  0  0  0  0  0
    0.3943    1.2135    0.0000 C   0  0  0  0  0  0  0  0  0  0  0  0
    1.2760    0.0000    0.0000 C   0  0  0  0  0  0  0  0  0  0  0  0
    0.3943   -1.2135    0.0000 C   0  0  0  0  0  0  0  0  0  0  0  0
   -1.0323   -0.7500    0.0000 C   0  0  0  0  0  0  0  0  0  0  0  0
   -1.0323    0.7500    0.0000 C   0  0  0  0  0  0  0  0  0  0  0  0
  1  2  1  0
  2  3  1  0
  3  4  1  0
  4  5  1  0
  5  6  1  0
  6  7  1  0
  7  8  1  0
  8  9  1  0
  9 10  1  0
 10 11  1  0
 11 12  1  0
 12 13  1  0
 13 14  1  0
 14 15  1  0
 15 16  1  0
 16 17  1  0
 17 18  1  0
 18 19  1  0
 19 20  1  0
 20 21  1  0
 21 22  1  0
 22 23  1  0
 23 24  1  0
 24 25  1  0
 25 26  1  0
 26 27  1  0
 27 28  1  0
 28 29  1  0
 29 30  1  0
 30 31  1  0
 31 32  1  0
 32 33  1  0
 33 34  1  0
 34 35  1  0
 35 36  1  0
 36 37  1  0
 37 38  1  0
 38 39  1  0
 39 40  1  0
 40 41  1  0
 41 42  1  0
 42 43  1  0
 43 44  1  0
 44 45  1  0
 45 46  1  0
 46 47  1  0
 47 48  1  0
 48 49  1  0
 49 50  1  0
 50 51  1  0
 51 52  1  0
 52 53  1  0
 53 54  1  0
 54 55  1  0
 55 56  1  0
 56 57  1  0
 57 58  1  0
 58 59  1  0
 59 60  1  0
 60 61  1  0
 61 62  1  0
 62 63  1  0
 63 64  1  0
 64 65  1  0
 65 66  1  0
 66 67  1  0
 67 68  1  0
 68 69  1  0
 69 70  1  0
 70 71  1  0
 71 72  1  0
 72 73  1  0
 73 74  1  0
 74 75  1  0
 75 76  1  0
 76 77  1  0
 77 78  1  0
 78 79  1  0
 79 80  1  0
 80 81  1  0
 81 82  1  0
 82 83  1  0
 83 84  1  0
 84 85  1  0
 85 86  1  0
 86 87  1  0
 87 88  1  0
 88 89  1  0
 89 90  1  0
 90 91  1  0
 91 92  1  0
 92 93  1  0
 93 94  1  0
 94 95  1  0
 95 96  1  0
 96 97  1  0
 97 98  1  0
 98 99  1  0
 99100  1  0
100101  2  0
101102  1  0
102103  2  0
103104  1  0
104105  2  0
105106  1  0
106107  2  0
107108  1  0
108109  2  0
109  2  1  0
109105  1  0
M  END
>  <Title>  (948) 
idABINgen14

$$$$

     RDKit          2D

 37 41  0  0  0  0  0  0  0  0999 V2000
   -3.1476   -2.1380    0.0000 C   0  0  0  0  0  0  0  0  0  0  0  0
   -1.6852   -2.4718    0.0000 C   0  0  0  0  0  0  0  0  0  0  0  0
   -1.3515   -3.9342    0.0000 C   0  0  0  0  0  0  0  0  0  0  0  0
   -0.0000   -4.5850    0.0000 C   0  0  0  0  0  0  0  0  0  0  0  0
    1.3515   -3.9342    0.0000 C   0  0  0  0  0  0  0  0  0  0  0  0
    1.6852   -2.4718    0.0000 C   0  0  0  0  0  0  0  0  0  0  0  0
    3.1476   -2.1380    0.0000 C   0  0  0  0  0  0  0  0  0  0  0  0
    3.5898   -0.7046    0.0000 O   0  0  0  0  0  0  0  0  0  0  0  0
    4.1679   -3.2376    0.0000 N   0  0  0  0  0  0  0  0  0  0  0  0
    5.6303   -2.9038    0.0000 C   0  0  0  0  0  0  0  0  0  0  0  0
    6.2198   -1.5245    0.0000 N   0  0  0  0  0  0  0  0  0  0  0  0
    7.7138   -1.6590    0.0000 N   0  0  0  0  0  0  0  0  0  0  0  0
    8.0476   -3.1214    0.0000 N   0  0  0  0  0  0  0  0  0  0  0  0
    6.7599   -3.8907    0.0000 N   0  0  0  0  0  0  0  0  0  0  0  0
    6.6254   -5.3847    0.0000 C   0  0  0  0  0  0  0  0  0  0  0  0
    7.7550   -6.3716    0.0000 C   0  0  0  0  0  0  0  0  0  0  0  0
    7.1655   -7.7509    0.0000 C   0  0  0  0  0  0  0  0  0  0  0  0
    5.6715   -7.6164    0.0000 C   0  0  0  0  0  0  0  0  0  0  0  0
    4.6846   -8.7460    0.0000 C   0  0  0  0  0  0  0  0  0  0  0  0
    5.1694  -10.1655    0.0000 O   0  0  0  0  0  0  0  0  0  0  0  0
    3.2129   -8.4561    0.0000 N   0  0  0  0  0  0  0  0  0  0  0  0
    2.2260   -9.5857    0.0000 C   0  0  0  0  0  0  0  0  0  0  0  0
    0.7543   -9.2959    0.0000 N   0  0  0  0  0  0  0  0  0  0  0  0
   -0.2326  -10.4255    0.0000 N   0  0  0  0  0  0  0  0  0  0  0  0
    0.2522  -11.8450    0.0000 N   0  0  0  0  0  0  0  0  0  0  0  0
    1.7239  -12.1348    0.0000 N   0  0  0  0  0  0  0  0  0  0  0  0
    2.7108  -11.0052    0.0000 N   0  0  0  0  0  0  0  0  0  0  0  0
    5.3378   -6.1540    0.0000 C   0  0  0  0  0  0  0  0  0  0  0  0
    3.9585   -5.5645    0.0000 O   0  0  0  0  0  0  0  0  0  0  0  0
    0.7500   -1.2990    0.0000 C   0  0  0  0  0  0  0  0  0  0  0  0
    1.5000    0.0000    0.0000 C   0  0  0  0  0  0  0  0  0  0  0  0
    0.7500    1.2990    0.0000 C   0  0  0  0  0  0  0  0  0  0  0  0
   -0.7500    1.2990    0.0000 C   0  0  0  0  0  0  0  0  0  0  0  0
   -1.5000    2.5981    0.0000 C   0  0  0  0  0  0  0  0  0  0  0  0
   -2.2500    3.8971    0.0000 N   0  0  0  0  0  0  0  0  0  0  0  0
   -1.5000    0.0000    0.0000 C   0  0  0  0  0  0  0  0  0  0  0  0
   -0.7500   -1.2990    0.0000 C   0  0  0  0  0  0  0  0  0  0  0  0
  1  2  1  0
  2  3  1  0
  3  4  1  0
  4  5  1  0
  5  6  1  0
  6  7  1  0
  7  8  2  0
  7  9  1  0
  9 10  1  0
 10 11  2  0
 11 12  1  0
 12 13  2  0
 13 14  1  0
 14 15  1  0
 15 16  2  0
 16 17  1  0
 17 18  2  0
 18 19  1  0
 19 20  2  0
 19 21  1  0
 21 22  1  0
 22 23  2  0
 23 24  1  0
 24 25  2  0
 25 26  1  0
 26 27  2  0
 18 28  1  0
 28 29  2  0
  6 30  1  0
 30 31  2  0
 31 32  1  0
 32 33  2  0
 33 34  1  0
 34 35  3  0
 33 36  1  0
 36 37  2  0
 37  2  1  0
 14 10  1  0
 28 15  1  0
 37 30  1  0
 27 22  1  0
M  END
>  <Title>  (949) 
idABIOgen14

$$$$

     RDKit          2D

 31 34  0  0  0  0  0  0  0  0999 V2000
    3.0000    0.0000    0.0000 C   0  0  0  0  0  0  0  0  0  0  0  0
    1.5000    0.0000    0.0000 C   0  0  0  0  0  0  0  0  0  0  0  0
    0.7500   -1.2990    0.0000 C   0  0  0  0  0  0  0  0  0  0  0  0
   -0.7500   -1.2990    0.0000 C   0  0  0  0  0  0  0  0  0  0  0  0
   -1.5000    0.0000    0.0000 C   0  0  0  0  0  0  0  0  0  0  0  0
   -0.7500    1.2990    0.0000 C   0  0  0  0  0  0  0  0  0  0  0  0
   -1.5000    2.5981    0.0000 C   0  0  0  0  0  0  0  0  0  0  0  0
   -3.0000    2.5981    0.0000 O   0  0  0  0  0  0  0  0  0  0  0  0
   -0.7500    3.8971    0.0000 N   0  0  0  0  0  0  0  0  0  0  0  0
   -1.5000    5.1962    0.0000 C   0  0  0  0  0  0  0  0  0  0  0  0
   -2.9918    5.3529    0.0000 N   0  0  0  0  0  0  0  0  0  0  0  0
   -3.3037    6.8202    0.0000 N   0  0  0  0  0  0  0  0  0  0  0  0
   -2.0046    7.5702    0.0000 N   0  0  0  0  0  0  0  0  0  0  0  0
   -0.8899    6.5665    0.0000 N   0  0  0  0  0  0  0  0  0  0  0  0
    0.5773    6.8783    0.0000 N   0  0  0  0  0  0  0  0  0  0  0  0
    1.1874    8.2487    0.0000 C   0  0  0  0  0  0  0  0  0  0  0  0
    2.6792    8.0919    0.0000 C   0  0  0  0  0  0  0  0  0  0  0  0
    2.9911    6.6246    0.0000 N   0  0  0  0  0  0  0  0  0  0  0  0
    4.3614    6.0145    0.0000 C   0  0  0  0  0  0  0  0  0  0  0  0
    5.5749    6.8962    0.0000 O   0  0  0  0  0  0  0  0  0  0  0  0
    4.5182    4.5228    0.0000 N   0  0  0  0  0  0  0  0  0  0  0  0
    5.8885    3.9126    0.0000 C   0  0  0  0  0  0  0  0  0  0  0  0
    6.0453    2.4209    0.0000 N   0  0  0  0  0  0  0  0  0  0  0  0
    7.4156    1.8108    0.0000 N   0  0  0  0  0  0  0  0  0  0  0  0
    8.6291    2.6924    0.0000 N   0  0  0  0  0  0  0  0  0  0  0  0
    8.4724    4.1842    0.0000 N   0  0  0  0  0  0  0  0  0  0  0  0
    7.1020    4.7943    0.0000 N   0  0  0  0  0  0  0  0  0  0  0  0
    1.6920    5.8746    0.0000 C   0  0  0  0  0  0  0  0  0  0  0  0
    1.5353    4.3829    0.0000 O   0  0  0  0  0  0  0  0  0  0  0  0
    0.7500    1.2990    0.0000 C   0  0  0  0  0  0  0  0  0  0  0  0
    1.5000    2.5981    0.0000 O   0  0  0  0  0  0  0  0  0  0  0  0
  1  2  1  0
  2  3  1  0
  3  4  1  0
  4  5  1  0
  5  6  1  0
  6  7  1  0
  7  8  2  0
  7  9  1  0
  9 10  1  0
 10 11  2  0
 11 12  1  0
 12 13  2  0
 13 14  1  0
 14 15  1  0
 15 16  1  0
 16 17  1  0
 17 18  1  0
 18 19  1  0
 19 20  2  0
 19 21  1  0
 21 22  1  0
 22 23  2  0
 23 24  1  0
 24 25  2  0
 25 26  1  0
 26 27  2  0
 18 28  1  0
 28 29  2  0
  6 30  1  0
 30 31  2  0
 30  2  1  0
 14 10  1  0
 28 15  1  0
 27 22  1  0
M  END
>  <Title>  (950) 
idABIPgen14

$$$$

     RDKit          2D

 33 37  0  0  0  0  0  0  0  0999 V2000
   -3.0000   -2.5981    0.0000 C   0  0  0  0  0  0  0  0  0  0  0  0
   -1.5000   -2.5981    0.0000 C   0  0  0  0  0  0  0  0  0  0  0  0
   -0.7500   -3.8971    0.0000 C   0  0  0  0  0  0  0  0  0  0  0  0
    0.7500   -3.8971    0.0000 C   0  0  0  0  0  0  0  0  0  0  0  0
    1.5000   -2.5981    0.0000 C   0  0  0  0  0  0  0  0  0  0  0  0
    3.0000   -2.5981    0.0000 C   0  0  0  0  0  0  0  0  0  0  0  0
    3.7500   -1.2990    0.0000 O   0  0  0  0  0  0  0  0  0  0  0  0
    3.7500   -3.8971    0.0000 N   0  0  0  0  0  0  0  0  0  0  0  0
    5.2500   -3.8971    0.0000 C   0  0  0  0  0  0  0  0  0  0  0  0
    6.1317   -2.6836    0.0000 N   0  0  0  0  0  0  0  0  0  0  0  0
    7.5583   -3.1471    0.0000 N   0  0  0  0  0  0  0  0  0  0  0  0
    7.5583   -4.6471    0.0000 N   0  0  0  0  0  0  0  0  0  0  0  0
    6.1317   -5.1106    0.0000 N   0  0  0  0  0  0  0  0  0  0  0  0
    5.6682   -6.5372    0.0000 N   0  0  0  0  0  0  0  0  0  0  0  0
    4.3316   -7.2182    0.0000 C   0  0  0  0  0  0  0  0  0  0  0  0
    5.0126   -8.5547    0.0000 C   0  0  0  0  0  0  0  0  0  0  0  0
    4.5491   -9.9813    0.0000 C   0  0  0  0  0  0  0  0  0  0  0  0
    5.5528  -11.0960    0.0000 O   0  0  0  0  0  0  0  0  0  0  0  0
    3.0819  -10.2932    0.0000 N   0  0  0  0  0  0  0  0  0  0  0  0
    2.6184  -11.7198    0.0000 C   0  0  0  0  0  0  0  0  0  0  0  0
    1.1511  -12.0316    0.0000 N   0  0  0  0  0  0  0  0  0  0  0  0
    0.6876  -13.4582    0.0000 N   0  0  0  0  0  0  0  0  0  0  0  0
    1.6913  -14.5729    0.0000 N   0  0  0  0  0  0  0  0  0  0  0  0
    3.1585  -14.2611    0.0000 N   0  0  0  0  0  0  0  0  0  0  0  0
    3.6221  -12.8345    0.0000 N   0  0  0  0  0  0  0  0  0  0  0  0
    6.3491   -7.8737    0.0000 C   0  0  0  0  0  0  0  0  0  0  0  0
    7.7757   -8.3373    0.0000 O   0  0  0  0  0  0  0  0  0  0  0  0
    0.7500   -1.2990    0.0000 C   0  0  0  0  0  0  0  0  0  0  0  0
    1.5000    0.0000    0.0000 C   0  0  0  0  0  0  0  0  0  0  0  0
    0.7500    1.2990    0.0000 C   0  0  0  0  0  0  0  0  0  0  0  0
   -0.7500    1.2990    0.0000 C   0  0  0  0  0  0  0  0  0  0  0  0
   -1.5000    0.0000    0.0000 C   0  0  0  0  0  0  0  0  0  0  0  0
   -0.7500   -1.2990    0.0000 C   0  0  0  0  0  0  0  0  0  0  0  0
  1  2  1  0
  2  3  1  0
  3  4  1  0
  4  5  1  0
  5  6  1  0
  6  7  2  0
  6  8  1  0
  8  9  1  0
  9 10  2  0
 10 11  1  0
 11 12  2  0
 12 13  1  0
 13 14  1  0
 14 15  1  0
 15 16  2  0
 16 17  1  0
 17 18  2  0
 17 19  1  0
 19 20  1  0
 20 21  2  0
 21 22  1  0
 22 23  2  0
 23 24  1  0
 24 25  2  0
 16 26  1  0
 26 27  2  0
  5 28  1  0
 28 29  2  0
 29 30  1  0
 30 31  2  0
 31 32  1  0
 32 33  2  0
 33  2  1  0
 13  9  1  0
 26 14  1  0
 33 28  1  0
 25 20  1  0
M  END
>  <Title>  (951) 
idABIQgen14

$$$$

     RDKit          2D

 40 45  0  0  0  0  0  0  0  0999 V2000
   -1.3240   -6.3062    0.0000 C   0  0  0  0  0  0  0  0  0  0  0  0
   -0.7500   -4.9204    0.0000 C   0  0  0  0  0  0  0  0  0  0  0  0
    0.7500   -4.9204    0.0000 C   0  0  0  0  0  0  0  0  0  0  0  0
    1.8107   -3.8597    0.0000 C   0  0  0  0  0  0  0  0  0  0  0  0
    1.8107   -2.3597    0.0000 C   0  0  0  0  0  0  0  0  0  0  0  0
    3.1965   -1.7857    0.0000 C   0  0  0  0  0  0  0  0  0  0  0  0
    3.3923   -0.2985    0.0000 O   0  0  0  0  0  0  0  0  0  0  0  0
    4.3865   -2.6988    0.0000 N   0  0  0  0  0  0  0  0  0  0  0  0
    5.7723   -2.1248    0.0000 C   0  0  0  0  0  0  0  0  0  0  0  0
    6.1225   -0.6662    0.0000 N   0  0  0  0  0  0  0  0  0  0  0  0
    7.6179   -0.5485    0.0000 N   0  0  0  0  0  0  0  0  0  0  0  0
    8.1919   -1.9344    0.0000 N   0  0  0  0  0  0  0  0  0  0  0  0
    7.0513   -2.9085    0.0000 N   0  0  0  0  0  0  0  0  0  0  0  0
    7.1690   -4.4039    0.0000 N   0  0  0  0  0  0  0  0  0  0  0  0
    8.4479   -5.1877    0.0000 C   0  0  0  0  0  0  0  0  0  0  0  0
    8.0978   -6.6462    0.0000 C   0  0  0  0  0  0  0  0  0  0  0  0
    6.6024   -6.7639    0.0000 N   0  0  0  0  0  0  0  0  0  0  0  0
    5.8186   -8.0429    0.0000 C   0  0  0  0  0  0  0  0  0  0  0  0
    6.5344   -9.3611    0.0000 O   0  0  0  0  0  0  0  0  0  0  0  0
    4.3192   -8.0036    0.0000 N   0  0  0  0  0  0  0  0  0  0  0  0
    3.5354   -9.2826    0.0000 C   0  0  0  0  0  0  0  0  0  0  0  0
    2.0359   -9.2433    0.0000 N   0  0  0  0  0  0  0  0  0  0  0  0
    1.2522  -10.5223    0.0000 N   0  0  0  0  0  0  0  0  0  0  0  0
    1.9679  -11.8405    0.0000 N   0  0  0  0  0  0  0  0  0  0  0  0
    3.4674  -11.8797    0.0000 N   0  0  0  0  0  0  0  0  0  0  0  0
    4.2512  -10.6008    0.0000 N   0  0  0  0  0  0  0  0  0  0  0  0
    6.0284   -5.3781    0.0000 C   0  0  0  0  0  0  0  0  0  0  0  0
    4.5698   -5.0279    0.0000 O   0  0  0  0  0  0  0  0  0  0  0  0
    0.7500   -1.2990    0.0000 C   0  0  0  0  0  0  0  0  0  0  0  0
    1.5000    0.0000    0.0000 C   0  0  0  0  0  0  0  0  0  0  0  0
    0.7500    1.2990    0.0000 C   0  0  0  0  0  0  0  0  0  0  0  0
   -0.7500    1.2990    0.0000 C   0  0  0  0  0  0  0  0  0  0  0  0
   -1.5000    0.0000    0.0000 C   0  0  0  0  0  0  0  0  0  0  0  0
   -0.7500   -1.2990    0.0000 C   0  0  0  0  0  0  0  0  0  0  0  0
   -1.8107   -2.3597    0.0000 C   0  0  0  0  0  0  0  0  0  0  0  0
   -3.1097   -1.6097    0.0000 C   0  0  0  0  0  0  0  0  0  0  0  0
   -4.4087   -2.3597    0.0000 C   0  0  0  0  0  0  0  0  0  0  0  0
   -4.4087   -3.8597    0.0000 C   0  0  0  0  0  0  0  0  0  0  0  0
   -3.1097   -4.6097    0.0000 C   0  0  0  0  0  0  0  0  0  0  0  0
   -1.8107   -3.8597    0.0000 C   0  0  0  0  0  0  0  0  0  0  0  0
  1  2  1  0
  2  3  2  0
  3  4  1  0
  4  5  1  0
  5  6  1  0
  6  7  2  0
  6  8  1  0
  8  9  1  0
  9 10  2  0
 10 11  1  0
 11 12  2  0
 12 13  1  0
 13 14  1  0
 14 15  1  0
 15 16  1  0
 16 17  1  0
 17 18  1  0
 18 19  2  0
 18 20  1  0
 20 21  1  0
 21 22  2  0
 22 23  1  0
 23 24  2  0
 24 25  1  0
 25 26  2  0
 17 27  1  0
 27 28  2  0
  5 29  1  0
 29 30  2  0
 30 31  1  0
 31 32  2  0
 32 33  1  0
 33 34  2  0
 34 35  1  0
 35 36  2  0
 36 37  1  0
 37 38  2  0
 38 39  1  0
 39 40  2  0
 40  2  1  0
 13  9  1  0
 27 14  1  0
 34 29  1  0
 40 35  1  0
 26 21  1  0
M  END
>  <Title>  (952) 
idABIRgen14

$$$$

     RDKit          2D

 17 18  0  0  0  0  0  0  0  0999 V2000
   -0.7500   -3.8971    0.0000 O   0  0  0  0  0  0  0  0  0  0  0  0
    0.7500   -3.8971    0.0000 C   0  0  0  0  0  0  0  0  0  0  0  0
    1.5000   -2.5981    0.0000 C   0  0  0  0  0  0  0  0  0  0  0  0
    0.7500   -1.2990    0.0000 C   0  0  0  0  0  0  0  0  0  0  0  0
    1.5000    0.0000    0.0000 C   0  0  0  0  0  0  0  0  0  0  0  0
    0.7500    1.2990    0.0000 S   0  0  0  0  0  0  0  0  0  0  0  0
   -0.7500    1.2990    0.0000 C   0  0  0  0  0  0  0  0  0  0  0  0
   -1.5000    0.0000    0.0000 C   0  0  0  0  0  0  0  0  0  0  0  0
   -0.7500   -1.2990    0.0000 N   0  0  0  0  0  0  0  0  0  0  0  0
    1.5000   -5.1962    0.0000 N   0  0  0  0  0  0  0  0  0  0  0  0
    0.7500   -6.4952    0.0000 C   0  0  0  0  0  0  0  0  0  0  0  0
    1.5000   -7.7942    0.0000 C   0  0  0  0  0  0  0  0  0  0  0  0
    0.7500   -9.0933    0.0000 C   0  0  0  0  0  0  0  0  0  0  0  0
    1.5000  -10.3923    0.0000 S   0  0  0  0  0  0  0  0  0  0  0  0
    3.0000  -10.3923    0.0000 C   0  0  0  0  0  0  0  0  0  0  0  0
    3.7500   -9.0933    0.0000 C   0  0  0  0  0  0  0  0  0  0  0  0
    3.0000   -7.7942    0.0000 N   0  0  0  0  0  0  0  0  0  0  0  0
  1  2  1  0
  2  3  1  0
  3  4  1  0
  4  5  2  0
  5  6  1  0
  6  7  1  0
  7  8  1  0
  8  9  2  0
  2 10  1  0
 10 11  1  0
 11 12  1  0
 12 13  2  0
 13 14  1  0
 14 15  1  0
 15 16  1  0
 16 17  2  0
  9  4  1  0
 17 12  1  0
M  END
>  <Title>  (953) 
idABISgen14

$$$$

     RDKit          2D

 13 13  0  0  0  0  0  0  0  0999 V2000
   13.2760   -0.0000    0.0000 C   0  0  0  0  0  0  0  0  0  0  0  0
   11.7760   -0.0000    0.0000 C   0  0  0  0  0  0  0  0  0  0  0  0
   10.2760   -0.0000    0.0000 C   0  0  0  0  0  0  0  0  0  0  0  0
    8.7760   -0.0000    0.0000 C   0  0  0  0  0  0  0  0  0  0  0  0
    7.2760   -0.0000    0.0000 C   0  0  0  0  0  0  0  0  0  0  0  0
    5.7760   -0.0000    0.0000 C   0  0  0  0  0  0  0  0  0  0  0  0
    4.2760   -0.0000    0.0000 C   0  0  0  0  0  0  0  0  0  0  0  0
    2.7760    0.0000    0.0000 C   0  0  0  0  0  0  0  0  0  0  0  0
    1.2760    0.0000    0.0000 C   0  0  0  0  0  0  0  0  0  0  0  0
    0.3943    1.2135    0.0000 C   0  0  0  0  0  0  0  0  0  0  0  0
   -1.0323    0.7500    0.0000 C   0  0  0  0  0  0  0  0  0  0  0  0
   -1.0323   -0.7500    0.0000 C   0  0  0  0  0  0  0  0  0  0  0  0
    0.3943   -1.2135    0.0000 C   0  0  0  0  0  0  0  0  0  0  0  0
  1  2  3  0
  2  3  1  0
  3  4  3  0
  4  5  1  0
  5  6  3  0
  6  7  1  0
  7  8  3  0
  8  9  1  0
  9 10  2  0
 10 11  1  0
 11 12  1  0
 12 13  2  0
 13  9  1  0
M  END
>  <Title>  (954) 
idABITgen14

$$$$

     RDKit          2D

 11 11  0  0  0  0  0  0  0  0999 V2000
    6.0000   -2.5981    0.0000 C   0  0  0  0  0  0  0  0  0  0  0  0
    5.2500   -1.2990    0.0000 C   0  0  0  0  0  0  0  0  0  0  0  0
    6.0000    0.0000    0.0000 O   0  0  0  0  0  0  0  0  0  0  0  0
    3.7500   -1.2990    0.0000 N   0  0  0  0  0  0  0  0  0  0  0  0
    3.0000    0.0000    0.0000 C   0  0  0  0  0  0  0  0  0  0  0  0
    1.5000    0.0000    0.0000 C   0  0  0  0  0  0  0  0  0  0  0  0
    0.7500   -1.2990    0.0000 C   0  0  0  0  0  0  0  0  0  0  0  0
   -0.7500   -1.2990    0.0000 C   0  0  0  0  0  0  0  0  0  0  0  0
   -1.5000    0.0000    0.0000 C   0  0  0  0  0  0  0  0  0  0  0  0
   -0.7500    1.2990    0.0000 C   0  0  0  0  0  0  0  0  0  0  0  0
    0.7500    1.2990    0.0000 C   0  0  0  0  0  0  0  0  0  0  0  0
  1  2  1  0
  2  3  2  0
  2  4  1  0
  4  5  1  0
  5  6  1  0
  6  7  2  0
  7  8  1  0
  8  9  2  0
  9 10  1  0
 10 11  2  0
 11  6  1  0
M  END
>  <Title>  (955) 
idABIUgen14

$$$$

     RDKit          2D

  8  7  0  0  0  0  0  0  0  0999 V2000
    0.0000    0.0000    0.0000 C   0  0  0  0  0  0  0  0  0  0  0  0
    1.2990    0.7500    0.0000 C   0  0  0  0  0  0  0  0  0  0  0  0
    2.5981   -0.0000    0.0000 C   0  0  0  0  0  0  0  0  0  0  0  0
    3.8971    0.7500    0.0000 C   0  0  0  0  0  0  0  0  0  0  0  0
    5.1962   -0.0000    0.0000 C   0  0  0  0  0  0  0  0  0  0  0  0
    5.1962   -1.5000    0.0000 O   0  0  0  0  0  0  0  0  0  0  0  0
    6.4952    0.7500    0.0000 N   0  0  0  0  0  0  0  0  0  0  0  0
    7.7942   -0.0000    0.0000 C   0  0  0  0  0  0  0  0  0  0  0  0
  1  2  2  0
  2  3  1  0
  3  4  1  0
  4  5  1  0
  5  6  1  0
  5  7  1  0
  7  8  1  0
M  END
>  <Title>  (956) 
idABIVgen14

$$$$

     RDKit          2D

 28 31  0  0  0  0  0  0  0  0999 V2000
   -3.1965   -1.7857    0.0000 C   0  0  0  0  0  0  0  0  0  0  0  0
   -1.8107   -2.3597    0.0000 C   0  0  0  0  0  0  0  0  0  0  0  0
   -1.8107   -3.8597    0.0000 C   0  0  0  0  0  0  0  0  0  0  0  0
   -0.7500   -4.9204    0.0000 C   0  0  0  0  0  0  0  0  0  0  0  0
    0.7500   -4.9204    0.0000 C   0  0  0  0  0  0  0  0  0  0  0  0
    1.8107   -3.8597    0.0000 C   0  0  0  0  0  0  0  0  0  0  0  0
    1.8107   -2.3597    0.0000 C   0  0  0  0  0  0  0  0  0  0  0  0
    3.1965   -1.7857    0.0000 C   0  0  0  0  0  0  0  0  0  0  0  0
    3.3923   -0.2985    0.0000 O   0  0  0  0  0  0  0  0  0  0  0  0
    4.3865   -2.6988    0.0000 N   0  0  0  0  0  0  0  0  0  0  0  0
    5.7723   -2.1248    0.0000 C   0  0  0  0  0  0  0  0  0  0  0  0
    6.1225   -0.6662    0.0000 N   0  0  0  0  0  0  0  0  0  0  0  0
    7.6179   -0.5485    0.0000 N   0  0  0  0  0  0  0  0  0  0  0  0
    8.1919   -1.9344    0.0000 N   0  0  0  0  0  0  0  0  0  0  0  0
    7.0513   -2.9085    0.0000 N   0  0  0  0  0  0  0  0  0  0  0  0
    7.1690   -4.4039    0.0000 C   0  0  0  0  0  0  0  0  0  0  0  0
    5.9328   -5.2535    0.0000 C   0  0  0  0  0  0  0  0  0  0  0  0
    6.0505   -6.7489    0.0000 C   0  0  0  0  0  0  0  0  0  0  0  0
    7.4044   -7.3947    0.0000 C   0  0  0  0  0  0  0  0  0  0  0  0
    7.5220   -8.8900    0.0000 O   0  0  0  0  0  0  0  0  0  0  0  0
    8.6405   -6.5451    0.0000 C   0  0  0  0  0  0  0  0  0  0  0  0
    8.5229   -5.0497    0.0000 C   0  0  0  0  0  0  0  0  0  0  0  0
    0.7500   -1.2990    0.0000 C   0  0  0  0  0  0  0  0  0  0  0  0
    1.5000    0.0000    0.0000 C   0  0  0  0  0  0  0  0  0  0  0  0
    0.7500    1.2990    0.0000 C   0  0  0  0  0  0  0  0  0  0  0  0
   -0.7500    1.2990    0.0000 C   0  0  0  0  0  0  0  0  0  0  0  0
   -1.5000    0.0000    0.0000 C   0  0  0  0  0  0  0  0  0  0  0  0
   -0.7500   -1.2990    0.0000 C   0  0  0  0  0  0  0  0  0  0  0  0
  1  2  1  0
  2  3  1  0
  3  4  2  0
  4  5  1  0
  5  6  1  0
  6  7  1  0
  7  8  1  0
  8  9  2  0
  8 10  1  0
 10 11  1  0
 11 12  2  0
 12 13  1  0
 13 14  2  0
 14 15  1  0
 15 16  1  0
 16 17  2  0
 17 18  1  0
 18 19  2  0
 19 20  1  0
 19 21  1  0
 21 22  2  0
  7 23  1  0
 23 24  2  0
 24 25  1  0
 25 26  2  0
 26 27  1  0
 27 28  2  0
 28  2  1  0
 15 11  1  0
 22 16  1  0
 28 23  1  0
M  END
>  <Title>  (957) 
idABIWgen14

$$$$

     RDKit          2D

 36 40  0  0  0  0  0  0  0  0999 V2000
   -4.6100   -1.8042    0.0000 N   0  0  0  0  0  0  0  0  0  0  0  0
   -3.1476   -2.1380    0.0000 C   0  0  0  0  0  0  0  0  0  0  0  0
   -1.6852   -2.4718    0.0000 C   0  0  0  0  0  0  0  0  0  0  0  0
   -1.3515   -3.9342    0.0000 C   0  0  0  0  0  0  0  0  0  0  0  0
   -0.0000   -4.5850    0.0000 C   0  0  0  0  0  0  0  0  0  0  0  0
    1.3515   -3.9342    0.0000 C   0  0  0  0  0  0  0  0  0  0  0  0
    1.6852   -2.4718    0.0000 C   0  0  0  0  0  0  0  0  0  0  0  0
    3.1476   -2.1380    0.0000 C   0  0  0  0  0  0  0  0  0  0  0  0
    3.5898   -0.7046    0.0000 O   0  0  0  0  0  0  0  0  0  0  0  0
    4.1679   -3.2376    0.0000 N   0  0  0  0  0  0  0  0  0  0  0  0
    5.6303   -2.9038    0.0000 C   0  0  0  0  0  0  0  0  0  0  0  0
    6.2198   -1.5245    0.0000 N   0  0  0  0  0  0  0  0  0  0  0  0
    7.7138   -1.6590    0.0000 N   0  0  0  0  0  0  0  0  0  0  0  0
    8.0476   -3.1214    0.0000 N   0  0  0  0  0  0  0  0  0  0  0  0
    6.7599   -3.8907    0.0000 N   0  0  0  0  0  0  0  0  0  0  0  0
    6.6254   -5.3847    0.0000 N   0  0  0  0  0  0  0  0  0  0  0  0
    7.7550   -6.3716    0.0000 C   0  0  0  0  0  0  0  0  0  0  0  0
    7.1655   -7.7509    0.0000 C   0  0  0  0  0  0  0  0  0  0  0  0
    5.6715   -7.6164    0.0000 N   0  0  0  0  0  0  0  0  0  0  0  0
    4.6846   -8.7460    0.0000 C   0  0  0  0  0  0  0  0  0  0  0  0
    5.1694  -10.1655    0.0000 O   0  0  0  0  0  0  0  0  0  0  0  0
    3.2129   -8.4561    0.0000 N   0  0  0  0  0  0  0  0  0  0  0  0
    2.2260   -9.5857    0.0000 C   0  0  0  0  0  0  0  0  0  0  0  0
    0.7543   -9.2959    0.0000 N   0  0  0  0  0  0  0  0  0  0  0  0
   -0.2326  -10.4255    0.0000 N   0  0  0  0  0  0  0  0  0  0  0  0
    0.2522  -11.8450    0.0000 N   0  0  0  0  0  0  0  0  0  0  0  0
    1.7239  -12.1348    0.0000 N   0  0  0  0  0  0  0  0  0  0  0  0
    2.7108  -11.0052    0.0000 N   0  0  0  0  0  0  0  0  0  0  0  0
    5.3378   -6.1540    0.0000 C   0  0  0  0  0  0  0  0  0  0  0  0
    3.9585   -5.5645    0.0000 O   0  0  0  0  0  0  0  0  0  0  0  0
    0.7500   -1.2990    0.0000 C   0  0  0  0  0  0  0  0  0  0  0  0
    1.5000    0.0000    0.0000 C   0  0  0  0  0  0  0  0  0  0  0  0
    0.7500    1.2990    0.0000 C   0  0  0  0  0  0  0  0  0  0  0  0
   -0.7500    1.2990    0.0000 C   0  0  0  0  0  0  0  0  0  0  0  0
   -1.5000    0.0000    0.0000 C   0  0  0  0  0  0  0  0  0  0  0  0
   -0.7500   -1.2990    0.0000 C   0  0  0  0  0  0  0  0  0  0  0  0
  1  2  3  0
  2  3  1  0
  3  4  1  0
  4  5  2  0
  5  6  1  0
  6  7  2  0
  7  8  1  0
  8  9  2  0
  8 10  1  0
 10 11  1  0
 11 12  2  0
 12 13  1  0
 13 14  2  0
 14 15  1  0
 15 16  1  0
 16 17  1  0
 17 18  1  0
 18 19  1  0
 19 20  1  0
 20 21  2  0
 20 22  1  0
 22 23  1  0
 23 24  2  0
 24 25  1  0
 25 26  2  0
 26 27  1  0
 27 28  2  0
 19 29  1  0
 29 30  2  0
  7 31  1  0
 31 32  2  0
 32 33  1  0
 33 34  2  0
 34 35  1  0
 35 36  2  0
 36  3  1  0
 15 11  1  0
 29 16  1  0
 36 31  1  0
 28 23  1  0
M  END
>  <Title>  (958) 
idABIXgen14

$$$$

     RDKit          2D

 26 29  0  0  0  0  0  0  0  0999 V2000
   -3.0000   -2.5981    0.0000 C   0  0  0  0  0  0  0  0  0  0  0  0
   -1.5000   -2.5981    0.0000 C   0  0  0  0  0  0  0  0  0  0  0  0
   -0.7500   -3.8971    0.0000 C   0  0  0  0  0  0  0  0  0  0  0  0
    0.7500   -3.8971    0.0000 C   0  0  0  0  0  0  0  0  0  0  0  0
    1.5000   -2.5981    0.0000 C   0  0  0  0  0  0  0  0  0  0  0  0
    3.0000   -2.5981    0.0000 N   0  0  0  0  0  0  0  0  0  0  0  0
    3.8817   -1.3846    0.0000 C   0  0  0  0  0  0  0  0  0  0  0  0
    5.3083   -1.8481    0.0000 C   0  0  0  0  0  0  0  0  0  0  0  0
    5.3083   -3.3481    0.0000 C   0  0  0  0  0  0  0  0  0  0  0  0
    6.5218   -4.2298    0.0000 C   0  0  0  0  0  0  0  0  0  0  0  0
    7.8921   -3.6196    0.0000 O   0  0  0  0  0  0  0  0  0  0  0  0
    6.3650   -5.7215    0.0000 N   0  0  0  0  0  0  0  0  0  0  0  0
    7.5785   -6.6032    0.0000 C   0  0  0  0  0  0  0  0  0  0  0  0
    7.4217   -8.0950    0.0000 N   0  0  0  0  0  0  0  0  0  0  0  0
    8.6353   -8.9767    0.0000 N   0  0  0  0  0  0  0  0  0  0  0  0
   10.0056   -8.3666    0.0000 N   0  0  0  0  0  0  0  0  0  0  0  0
   10.1624   -6.8748    0.0000 N   0  0  0  0  0  0  0  0  0  0  0  0
    8.9488   -5.9931    0.0000 N   0  0  0  0  0  0  0  0  0  0  0  0
    3.8817   -3.8116    0.0000 C   0  0  0  0  0  0  0  0  0  0  0  0
    3.4182   -5.2382    0.0000 O   0  0  0  0  0  0  0  0  0  0  0  0
    0.7500   -1.2990    0.0000 C   0  0  0  0  0  0  0  0  0  0  0  0
    1.5000    0.0000    0.0000 C   0  0  0  0  0  0  0  0  0  0  0  0
    0.7500    1.2990    0.0000 C   0  0  0  0  0  0  0  0  0  0  0  0
   -0.7500    1.2990    0.0000 C   0  0  0  0  0  0  0  0  0  0  0  0
   -1.5000    0.0000    0.0000 C   0  0  0  0  0  0  0  0  0  0  0  0
   -0.7500   -1.2990    0.0000 C   0  0  0  0  0  0  0  0  0  0  0  0
  1  2  1  0
  2  3  2  0
  3  4  1  0
  4  5  2  0
  5  6  1  0
  6  7  1  0
  7  8  1  0
  8  9  2  0
  9 10  1  0
 10 11  2  0
 10 12  1  0
 12 13  1  0
 13 14  2  0
 14 15  1  0
 15 16  2  0
 16 17  1  0
 17 18  2  0
  9 19  1  0
 19 20  2  0
  5 21  1  0
 21 22  2  0
 22 23  1  0
 23 24  2  0
 24 25  1  0
 25 26  2  0
 26  2  1  0
 19  6  1  0
 26 21  1  0
 18 13  1  0
M  END
>  <Title>  (959) 
idABIYgen14

$$$$

     RDKit          2D

 40 45  0  0  0  0  0  0  0  0999 V2000
   -1.3240   -6.3062    0.0000 C   0  0  0  0  0  0  0  0  0  0  0  0
   -0.7500   -4.9204    0.0000 C   0  0  0  0  0  0  0  0  0  0  0  0
    0.7500   -4.9204    0.0000 C   0  0  0  0  0  0  0  0  0  0  0  0
    1.8107   -3.8597    0.0000 C   0  0  0  0  0  0  0  0  0  0  0  0
    1.8107   -2.3597    0.0000 C   0  0  0  0  0  0  0  0  0  0  0  0
    3.1965   -1.7857    0.0000 C   0  0  0  0  0  0  0  0  0  0  0  0
    3.3923   -0.2985    0.0000 O   0  0  0  0  0  0  0  0  0  0  0  0
    4.3865   -2.6988    0.0000 N   0  0  0  0  0  0  0  0  0  0  0  0
    5.7723   -2.1248    0.0000 C   0  0  0  0  0  0  0  0  0  0  0  0
    6.1225   -0.6662    0.0000 N   0  0  0  0  0  0  0  0  0  0  0  0
    7.6179   -0.5485    0.0000 N   0  0  0  0  0  0  0  0  0  0  0  0
    8.1919   -1.9344    0.0000 N   0  0  0  0  0  0  0  0  0  0  0  0
    7.0513   -2.9085    0.0000 N   0  0  0  0  0  0  0  0  0  0  0  0
    7.1690   -4.4039    0.0000 N   0  0  0  0  0  0  0  0  0  0  0  0
    8.4479   -5.1877    0.0000 C   0  0  0  0  0  0  0  0  0  0  0  0
    8.0978   -6.6462    0.0000 C   0  0  0  0  0  0  0  0  0  0  0  0
    6.6024   -6.7639    0.0000 N   0  0  0  0  0  0  0  0  0  0  0  0
    5.8186   -8.0429    0.0000 C   0  0  0  0  0  0  0  0  0  0  0  0
    6.5344   -9.3611    0.0000 O   0  0  0  0  0  0  0  0  0  0  0  0
    4.3192   -8.0036    0.0000 N   0  0  0  0  0  0  0  0  0  0  0  0
    3.5354   -9.2826    0.0000 C   0  0  0  0  0  0  0  0  0  0  0  0
    2.0359   -9.2433    0.0000 N   0  0  0  0  0  0  0  0  0  0  0  0
    1.2522  -10.5223    0.0000 N   0  0  0  0  0  0  0  0  0  0  0  0
    1.9679  -11.8405    0.0000 N   0  0  0  0  0  0  0  0  0  0  0  0
    3.4674  -11.8797    0.0000 N   0  0  0  0  0  0  0  0  0  0  0  0
    4.2512  -10.6008    0.0000 N   0  0  0  0  0  0  0  0  0  0  0  0
    6.0284   -5.3781    0.0000 C   0  0  0  0  0  0  0  0  0  0  0  0
    4.5698   -5.0279    0.0000 O   0  0  0  0  0  0  0  0  0  0  0  0
    0.7500   -1.2990    0.0000 C   0  0  0  0  0  0  0  0  0  0  0  0
    1.5000    0.0000    0.0000 C   0  0  0  0  0  0  0  0  0  0  0  0
    0.7500    1.2990    0.0000 C   0  0  0  0  0  0  0  0  0  0  0  0
   -0.7500    1.2990    0.0000 C   0  0  0  0  0  0  0  0  0  0  0  0
   -1.5000    0.0000    0.0000 C   0  0  0  0  0  0  0  0  0  0  0  0
   -0.7500   -1.2990    0.0000 C   0  0  0  0  0  0  0  0  0  0  0  0
   -1.8107   -2.3597    0.0000 C   0  0  0  0  0  0  0  0  0  0  0  0
   -3.1097   -1.6097    0.0000 C   0  0  0  0  0  0  0  0  0  0  0  0
   -4.4087   -2.3597    0.0000 C   0  0  0  0  0  0  0  0  0  0  0  0
   -4.4087   -3.8597    0.0000 C   0  0  0  0  0  0  0  0  0  0  0  0
   -3.1097   -4.6097    0.0000 C   0  0  0  0  0  0  0  0  0  0  0  0
   -1.8107   -3.8597    0.0000 C   0  0  0  0  0  0  0  0  0  0  0  0
  1  2  1  0
  2  3  1  0
  3  4  1  0
  4  5  1  0
  5  6  1  0
  6  7  2  0
  6  8  1  0
  8  9  1  0
  9 10  2  0
 10 11  1  0
 11 12  2  0
 12 13  1  0
 13 14  1  0
 14 15  1  0
 15 16  1  0
 16 17  1  0
 17 18  1  0
 18 19  2  0
 18 20  1  0
 20 21  1  0
 21 22  2  0
 22 23  1  0
 23 24  2  0
 24 25  1  0
 25 26  2  0
 17 27  1  0
 27 28  2  0
  5 29  1  0
 29 30  2  0
 30 31  1  0
 31 32  2  0
 32 33  1  0
 33 34  2  0
 34 35  1  0
 35 36  2  0
 36 37  1  0
 37 38  2  0
 38 39  1  0
 39 40  2  0
 40  2  1  0
 13  9  1  0
 27 14  1  0
 34 29  1  0
 40 35  1  0
 26 21  1  0
M  END
>  <Title>  (960) 
idABIZgen14

$$$$

     RDKit          2D

 36 40  0  0  0  0  0  0  0  0999 V2000
   -3.0000   -2.5981    0.0000 C   0  0  0  0  0  0  0  0  0  0  0  0
   -1.5000   -2.5981    0.0000 C   0  0  0  0  0  0  0  0  0  0  0  0
   -0.7500   -3.8971    0.0000 C   0  0  0  0  0  0  0  0  0  0  0  0
    0.7500   -3.8971    0.0000 C   0  0  0  0  0  0  0  0  0  0  0  0
    1.5000   -2.5981    0.0000 C   0  0  0  0  0  0  0  0  0  0  0  0
    3.0000   -2.5981    0.0000 C   0  0  0  0  0  0  0  0  0  0  0  0
    3.7500   -1.2990    0.0000 O   0  0  0  0  0  0  0  0  0  0  0  0
    3.7500   -3.8971    0.0000 N   0  0  0  0  0  0  0  0  0  0  0  0
    5.2500   -3.8971    0.0000 C   0  0  0  0  0  0  0  0  0  0  0  0
    6.1317   -2.6836    0.0000 N   0  0  0  0  0  0  0  0  0  0  0  0
    7.5583   -3.1471    0.0000 N   0  0  0  0  0  0  0  0  0  0  0  0
    7.5583   -4.6471    0.0000 N   0  0  0  0  0  0  0  0  0  0  0  0
    6.1317   -5.1106    0.0000 N   0  0  0  0  0  0  0  0  0  0  0  0
    5.6682   -6.5372    0.0000 N   0  0  0  0  0  0  0  0  0  0  0  0
    6.5498   -7.7508    0.0000 C   0  0  0  0  0  0  0  0  0  0  0  0
    5.6682   -8.9643    0.0000 C   0  0  0  0  0  0  0  0  0  0  0  0
    4.2416   -8.5008    0.0000 N   0  0  0  0  0  0  0  0  0  0  0  0
    3.0280   -9.3824    0.0000 C   0  0  0  0  0  0  0  0  0  0  0  0
    3.1848  -10.8742    0.0000 O   0  0  0  0  0  0  0  0  0  0  0  0
    1.6577   -8.7723    0.0000 N   0  0  0  0  0  0  0  0  0  0  0  0
    0.4442   -9.6540    0.0000 C   0  0  0  0  0  0  0  0  0  0  0  0
   -0.9261   -9.0439    0.0000 N   0  0  0  0  0  0  0  0  0  0  0  0
   -2.1396   -9.9256    0.0000 N   0  0  0  0  0  0  0  0  0  0  0  0
   -1.9829  -11.4174    0.0000 N   0  0  0  0  0  0  0  0  0  0  0  0
   -0.6125  -12.0275    0.0000 N   0  0  0  0  0  0  0  0  0  0  0  0
    0.6010  -11.1458    0.0000 N   0  0  0  0  0  0  0  0  0  0  0  0
    4.2416   -7.0008    0.0000 C   0  0  0  0  0  0  0  0  0  0  0  0
    3.0280   -6.1191    0.0000 O   0  0  0  0  0  0  0  0  0  0  0  0
    0.7500   -1.2990    0.0000 C   0  0  0  0  0  0  0  0  0  0  0  0
    1.5000    0.0000    0.0000 C   0  0  0  0  0  0  0  0  0  0  0  0
    0.7500    1.2990    0.0000 C   0  0  0  0  0  0  0  0  0  0  0  0
   -0.7500    1.2990    0.0000 C   0  0  0  0  0  0  0  0  0  0  0  0
   -1.5000    2.5981    0.0000 C   0  0  0  0  0  0  0  0  0  0  0  0
   -2.2500    3.8971    0.0000 N   0  0  0  0  0  0  0  0  0  0  0  0
   -1.5000    0.0000    0.0000 C   0  0  0  0  0  0  0  0  0  0  0  0
   -0.7500   -1.2990    0.0000 C   0  0  0  0  0  0  0  0  0  0  0  0
  1  2  1  0
  2  3  1  0
  3  4  2  0
  4  5  1  0
  5  6  1  0
  6  7  2  0
  6  8  1  0
  8  9  1  0
  9 10  2  0
 10 11  1  0
 11 12  2  0
 12 13  1  0
 13 14  1  0
 14 15  1  0
 15 16  1  0
 16 17  1  0
 17 18  1  0
 18 19  2  0
 18 20  1  0
 20 21  1  0
 21 22  2  0
 22 23  1  0
 23 24  2  0
 24 25  1  0
 25 26  2  0
 17 27  1  0
 27 28  2  0
  5 29  1  0
 29 30  2  0
 30 31  1  0
 31 32  2  0
 32 33  1  0
 33 34  3  0
 32 35  1  0
 35 36  2  0
 36  2  1  0
 13  9  1  0
 27 14  1  0
 36 29  1  0
 26 21  1  0
M  END
>  <Title>  (961) 
idABJAgen14

$$$$

     RDKit          2D

 17 18  0  0  0  0  0  0  0  0999 V2000
   -2.5081   -6.0187    0.0000 C   0  0  0  0  0  0  0  0  0  0  0  0
   -1.0409   -5.7068    0.0000 C   0  0  0  0  0  0  0  0  0  0  0  0
   -0.0372   -6.8216    0.0000 O   0  0  0  0  0  0  0  0  0  0  0  0
   -0.5773   -4.2803    0.0000 N   0  0  0  0  0  0  0  0  0  0  0  0
    0.8899   -3.9684    0.0000 C   0  0  0  0  0  0  0  0  0  0  0  0
    2.0046   -4.9721    0.0000 C   0  0  0  0  0  0  0  0  0  0  0  0
    3.3037   -4.2221    0.0000 S   0  0  0  0  0  0  0  0  0  0  0  0
    2.9918   -2.7549    0.0000 C   0  0  0  0  0  0  0  0  0  0  0  0
    3.9955   -1.6402    0.0000 C   0  0  0  0  0  0  0  0  0  0  0  0
    1.5000   -2.5981    0.0000 N   0  0  0  0  0  0  0  0  0  0  0  0
    0.7500   -1.2990    0.0000 C   0  0  0  0  0  0  0  0  0  0  0  0
    1.5000    0.0000    0.0000 C   0  0  0  0  0  0  0  0  0  0  0  0
    0.7500    1.2990    0.0000 C   0  0  0  0  0  0  0  0  0  0  0  0
   -0.7500    1.2990    0.0000 C   0  0  0  0  0  0  0  0  0  0  0  0
   -1.5000    2.5981    0.0000 F   0  0  0  0  0  0  0  0  0  0  0  0
   -1.5000    0.0000    0.0000 C   0  0  0  0  0  0  0  0  0  0  0  0
   -0.7500   -1.2990    0.0000 C   0  0  0  0  0  0  0  0  0  0  0  0
  1  2  1  0
  2  3  2  0
  2  4  1  0
  4  5  1  0
  5  6  2  0
  6  7  1  0
  7  8  1  0
  8  9  1  0
  8 10  1  0
 10 11  1  0
 11 12  2  0
 12 13  1  0
 13 14  2  0
 14 15  1  0
 14 16  1  0
 16 17  2  0
 10  5  1  0
 17 11  1  0
M  END
>  <Title>  (962) 
idABJBgen14

$$$$

     RDKit          2D

 44 49  0  0  0  0  0  0  0  0999 V2000
   -3.7500   -1.2990    0.0000 O   0  0  0  0  0  0  0  0  0  0  0  0
   -3.0000   -2.5981    0.0000 C   0  0  0  0  0  0  0  0  0  0  0  0
   -3.7500   -3.8971    0.0000 N   0  0  0  0  0  0  0  0  0  0  0  0
   -5.2500   -3.8971    0.0000 C   0  0  0  0  0  0  0  0  0  0  0  0
   -6.1317   -2.6836    0.0000 N   0  0  0  0  0  0  0  0  0  0  0  0
   -7.5583   -3.1471    0.0000 N   0  0  0  0  0  0  0  0  0  0  0  0
   -7.5583   -4.6471    0.0000 N   0  0  0  0  0  0  0  0  0  0  0  0
   -6.1317   -5.1106    0.0000 N   0  0  0  0  0  0  0  0  0  0  0  0
   -5.6682   -6.5372    0.0000 N   0  0  0  0  0  0  0  0  0  0  0  0
   -4.2416   -7.0008    0.0000 C   0  0  0  0  0  0  0  0  0  0  0  0
   -4.2416   -8.5008    0.0000 C   0  0  0  0  0  0  0  0  0  0  0  0
   -5.6682   -8.9643    0.0000 N   0  0  0  0  0  0  0  0  0  0  0  0
   -6.1317  -10.3909    0.0000 C   0  0  0  0  0  0  0  0  0  0  0  0
   -7.5989  -10.7027    0.0000 O   0  0  0  0  0  0  0  0  0  0  0  0
   -5.1280  -11.5056    0.0000 N   0  0  0  0  0  0  0  0  0  0  0  0
   -5.5915  -12.9322    0.0000 C   0  0  0  0  0  0  0  0  0  0  0  0
   -7.0587  -13.2440    0.0000 N   0  0  0  0  0  0  0  0  0  0  0  0
   -7.5223  -14.6706    0.0000 N   0  0  0  0  0  0  0  0  0  0  0  0
   -6.5186  -15.7853    0.0000 N   0  0  0  0  0  0  0  0  0  0  0  0
   -5.0513  -15.4735    0.0000 N   0  0  0  0  0  0  0  0  0  0  0  0
   -4.5878  -14.0469    0.0000 N   0  0  0  0  0  0  0  0  0  0  0  0
   -6.5498   -7.7508    0.0000 C   0  0  0  0  0  0  0  0  0  0  0  0
   -8.0498   -7.7508    0.0000 O   0  0  0  0  0  0  0  0  0  0  0  0
   -1.5000   -2.5981    0.0000 C   0  0  0  0  0  0  0  0  0  0  0  0
   -0.7500   -3.8971    0.0000 C   0  0  0  0  0  0  0  0  0  0  0  0
    0.7500   -3.8971    0.0000 C   0  0  0  0  0  0  0  0  0  0  0  0
    1.5000   -2.5981    0.0000 C   0  0  0  0  0  0  0  0  0  0  0  0
    3.0000   -2.5981    0.0000 C   0  0  0  0  0  0  0  0  0  0  0  0
    3.7500   -3.8971    0.0000 N   0  0  0  0  0  0  0  0  0  0  0  0
    5.2500   -3.8971    0.0000 C   0  0  0  0  0  0  0  0  0  0  0  0
    6.0000   -2.5981    0.0000 O   0  0  0  0  0  0  0  0  0  0  0  0
    6.0000   -5.1962    0.0000 C   0  0  0  0  0  0  0  0  0  0  0  0
    7.5000   -5.1962    0.0000 C   0  0  0  0  0  0  0  0  0  0  0  0
    8.3817   -3.9826    0.0000 C   0  0  0  0  0  0  0  0  0  0  0  0
    9.8083   -4.4462    0.0000 C   0  0  0  0  0  0  0  0  0  0  0  0
    9.8083   -5.9462    0.0000 C   0  0  0  0  0  0  0  0  0  0  0  0
    8.3817   -6.4097    0.0000 N   0  0  0  0  0  0  0  0  0  0  0  0
    0.7500   -1.2990    0.0000 C   0  0  0  0  0  0  0  0  0  0  0  0
    1.5000    0.0000    0.0000 C   0  0  0  0  0  0  0  0  0  0  0  0
    0.7500    1.2990    0.0000 C   0  0  0  0  0  0  0  0  0  0  0  0
    1.5000    2.5981    0.0000 O   0  0  0  0  0  0  0  0  0  0  0  0
   -0.7500    1.2990    0.0000 C   0  0  0  0  0  0  0  0  0  0  0  0
   -1.5000    0.0000    0.0000 C   0  0  0  0  0  0  0  0  0  0  0  0
   -0.7500   -1.2990    0.0000 C   0  0  0  0  0  0  0  0  0  0  0  0
  1  2  2  0
  2  3  1  0
  3  4  1  0
  4  5  2  0
  5  6  1  0
  6  7  2  0
  7  8  1  0
  8  9  1  0
  9 10  1  0
 10 11  1  0
 11 12  1  0
 12 13  1  0
 13 14  2  0
 13 15  1  0
 15 16  1  0
 16 17  2  0
 17 18  1  0
 18 19  2  0
 19 20  1  0
 20 21  2  0
 12 22  1  0
 22 23  2  0
  2 24  1  0
 24 25  2  0
 25 26  1  0
 26 27  2  0
 27 28  1  0
 28 29  1  0
 29 30  1  0
 30 31  1  0
 30 32  1  0
 32 33  1  0
 33 34  2  0
 34 35  1  0
 35 36  1  0
 36 37  2  0
 27 38  1  0
 38 39  2  0
 39 40  1  0
 40 41  1  0
 40 42  2  0
 42 43  1  0
 43 44  2  0
  8  4  1  0
 22  9  1  0
 44 24  1  0
 21 16  1  0
 37 33  1  0
 44 38  1  0
M  END
>  <Title>  (963) 
idABJCgen14

$$$$

     RDKit          2D

 35 39  0  0  0  0  0  0  0  0999 V2000
   -3.1476   -2.1380    0.0000 C   0  0  0  0  0  0  0  0  0  0  0  0
   -1.6852   -2.4718    0.0000 C   0  0  0  0  0  0  0  0  0  0  0  0
   -1.3515   -3.9342    0.0000 C   0  0  0  0  0  0  0  0  0  0  0  0
   -0.0000   -4.5850    0.0000 C   0  0  0  0  0  0  0  0  0  0  0  0
    1.3515   -3.9342    0.0000 C   0  0  0  0  0  0  0  0  0  0  0  0
    1.6852   -2.4718    0.0000 C   0  0  0  0  0  0  0  0  0  0  0  0
    3.1476   -2.1380    0.0000 C   0  0  0  0  0  0  0  0  0  0  0  0
    3.5898   -0.7046    0.0000 O   0  0  0  0  0  0  0  0  0  0  0  0
    4.1679   -3.2376    0.0000 N   0  0  0  0  0  0  0  0  0  0  0  0
    5.6303   -2.9038    0.0000 C   0  0  0  0  0  0  0  0  0  0  0  0
    6.2198   -1.5245    0.0000 N   0  0  0  0  0  0  0  0  0  0  0  0
    7.7138   -1.6590    0.0000 N   0  0  0  0  0  0  0  0  0  0  0  0
    8.0476   -3.1214    0.0000 N   0  0  0  0  0  0  0  0  0  0  0  0
    6.7599   -3.8907    0.0000 N   0  0  0  0  0  0  0  0  0  0  0  0
    6.6254   -5.3847    0.0000 C   0  0  0  0  0  0  0  0  0  0  0  0
    7.7550   -6.3716    0.0000 C   0  0  0  0  0  0  0  0  0  0  0  0
    7.1655   -7.7509    0.0000 C   0  0  0  0  0  0  0  0  0  0  0  0
    5.6715   -7.6164    0.0000 C   0  0  0  0  0  0  0  0  0  0  0  0
    4.6846   -8.7460    0.0000 C   0  0  0  0  0  0  0  0  0  0  0  0
    5.1694  -10.1655    0.0000 O   0  0  0  0  0  0  0  0  0  0  0  0
    3.2129   -8.4561    0.0000 N   0  0  0  0  0  0  0  0  0  0  0  0
    2.2260   -9.5857    0.0000 C   0  0  0  0  0  0  0  0  0  0  0  0
    0.7543   -9.2959    0.0000 N   0  0  0  0  0  0  0  0  0  0  0  0
   -0.2326  -10.4255    0.0000 N   0  0  0  0  0  0  0  0  0  0  0  0
    0.2522  -11.8450    0.0000 N   0  0  0  0  0  0  0  0  0  0  0  0
    1.7239  -12.1348    0.0000 N   0  0  0  0  0  0  0  0  0  0  0  0
    2.7108  -11.0052    0.0000 N   0  0  0  0  0  0  0  0  0  0  0  0
    5.3378   -6.1540    0.0000 C   0  0  0  0  0  0  0  0  0  0  0  0
    3.9585   -5.5645    0.0000 O   0  0  0  0  0  0  0  0  0  0  0  0
    0.7500   -1.2990    0.0000 C   0  0  0  0  0  0  0  0  0  0  0  0
    1.5000    0.0000    0.0000 C   0  0  0  0  0  0  0  0  0  0  0  0
    0.7500    1.2990    0.0000 C   0  0  0  0  0  0  0  0  0  0  0  0
   -0.7500    1.2990    0.0000 C   0  0  0  0  0  0  0  0  0  0  0  0
   -1.5000    0.0000    0.0000 C   0  0  0  0  0  0  0  0  0  0  0  0
   -0.7500   -1.2990    0.0000 C   0  0  0  0  0  0  0  0  0  0  0  0
  1  2  1  0
  2  3  2  0
  3  4  1  0
  4  5  1  0
  5  6  2  0
  6  7  1  0
  7  8  2  0
  7  9  1  0
  9 10  1  0
 10 11  2  0
 11 12  1  0
 12 13  2  0
 13 14  1  0
 14 15  1  0
 15 16  2  0
 16 17  1  0
 17 18  2  0
 18 19  1  0
 19 20  2  0
 19 21  1  0
 21 22  1  0
 22 23  2  0
 23 24  1  0
 24 25  2  0
 25 26  1  0
 26 27  2  0
 18 28  1  0
 28 29  2  0
  6 30  1  0
 30 31  2  0
 31 32  1  0
 32 33  2  0
 33 34  1  0
 34 35  2  0
 35  2  1  0
 14 10  1  0
 28 15  1  0
 35 30  1  0
 27 22  1  0
M  END
>  <Title>  (964) 
idABJDgen14

$$$$

     RDKit          2D

 35 39  0  0  0  0  0  0  0  0999 V2000
   10.0051   -0.5013    0.0000 C   0  0  0  0  0  0  0  0  0  0  0  0
    8.5134   -0.6581    0.0000 C   0  0  0  0  0  0  0  0  0  0  0  0
    7.7634   -1.9571    0.0000 C   0  0  0  0  0  0  0  0  0  0  0  0
    6.2961   -1.6453    0.0000 C   0  0  0  0  0  0  0  0  0  0  0  0
    5.1814   -2.6490    0.0000 O   0  0  0  0  0  0  0  0  0  0  0  0
    5.4933   -4.1162    0.0000 C   0  0  0  0  0  0  0  0  0  0  0  0
    6.9199   -4.5797    0.0000 O   0  0  0  0  0  0  0  0  0  0  0  0
    4.3786   -5.1199    0.0000 N   0  0  0  0  0  0  0  0  0  0  0  0
    4.6904   -6.5871    0.0000 C   0  0  0  0  0  0  0  0  0  0  0  0
    6.0607   -7.1972    0.0000 N   0  0  0  0  0  0  0  0  0  0  0  0
    5.9040   -8.6890    0.0000 N   0  0  0  0  0  0  0  0  0  0  0  0
    4.4367   -9.0009    0.0000 N   0  0  0  0  0  0  0  0  0  0  0  0
    3.6867   -7.7018    0.0000 N   0  0  0  0  0  0  0  0  0  0  0  0
    2.1950   -7.5450    0.0000 C   0  0  0  0  0  0  0  0  0  0  0  0
    1.4450   -6.2460    0.0000 C   0  0  0  0  0  0  0  0  0  0  0  0
   -0.0223   -6.5579    0.0000 C   0  0  0  0  0  0  0  0  0  0  0  0
   -0.1791   -8.0497    0.0000 C   0  0  0  0  0  0  0  0  0  0  0  0
   -1.4781   -8.7997    0.0000 O   0  0  0  0  0  0  0  0  0  0  0  0
   -2.7771   -8.0497    0.0000 C   0  0  0  0  0  0  0  0  0  0  0  0
   -2.7771   -6.5497    0.0000 O   0  0  0  0  0  0  0  0  0  0  0  0
   -4.0762   -8.7997    0.0000 N   0  0  0  0  0  0  0  0  0  0  0  0
   -5.3752   -8.0497    0.0000 C   0  0  0  0  0  0  0  0  0  0  0  0
   -6.6743   -8.7997    0.0000 N   0  0  0  0  0  0  0  0  0  0  0  0
   -7.9733   -8.0497    0.0000 N   0  0  0  0  0  0  0  0  0  0  0  0
   -7.9733   -6.5497    0.0000 N   0  0  0  0  0  0  0  0  0  0  0  0
   -6.6743   -5.7997    0.0000 N   0  0  0  0  0  0  0  0  0  0  0  0
   -5.3752   -6.5497    0.0000 N   0  0  0  0  0  0  0  0  0  0  0  0
    1.1913   -8.6598    0.0000 C   0  0  0  0  0  0  0  0  0  0  0  0
    1.5031  -10.1270    0.0000 O   0  0  0  0  0  0  0  0  0  0  0  0
    6.1393   -0.1535    0.0000 C   0  0  0  0  0  0  0  0  0  0  0  0
    4.9258    0.7282    0.0000 C   0  0  0  0  0  0  0  0  0  0  0  0
    5.0826    2.2200    0.0000 C   0  0  0  0  0  0  0  0  0  0  0  0
    6.4529    2.8301    0.0000 C   0  0  0  0  0  0  0  0  0  0  0  0
    7.6664    1.9484    0.0000 C   0  0  0  0  0  0  0  0  0  0  0  0
    7.5097    0.4566    0.0000 C   0  0  0  0  0  0  0  0  0  0  0  0
  1  2  1  0
  2  3  2  0
  3  4  1  0
  4  5  1  0
  5  6  1  0
  6  7  2  0
  6  8  1  0
  8  9  1  0
  9 10  2  0
 10 11  1  0
 11 12  2  0
 12 13  1  0
 13 14  1  0
 14 15  2  0
 15 16  1  0
 16 17  2  0
 17 18  1  0
 18 19  1  0
 19 20  2  0
 19 21  1  0
 21 22  1  0
 22 23  2  0
 23 24  1  0
 24 25  2  0
 25 26  1  0
 26 27  2  0
 17 28  1  0
 28 29  2  0
  4 30  1  0
 30 31  2  0
 31 32  1  0
 32 33  2  0
 33 34  1  0
 34 35  2  0
 35  2  1  0
 13  9  1  0
 28 14  1  0
 35 30  1  0
 27 22  1  0
M  END
>  <Title>  (965) 
idABJEgen14

$$$$

     RDKit          2D

 22 24  0  0  0  0  0  0  0  0999 V2000
   -3.1965   -1.7857    0.0000 C   0  0  0  0  0  0  0  0  0  0  0  0
   -1.8107   -2.3597    0.0000 C   0  0  0  0  0  0  0  0  0  0  0  0
   -1.8107   -3.8597    0.0000 C   0  0  0  0  0  0  0  0  0  0  0  0
   -0.7500   -4.9204    0.0000 C   0  0  0  0  0  0  0  0  0  0  0  0
    0.7500   -4.9204    0.0000 C   0  0  0  0  0  0  0  0  0  0  0  0
    1.8107   -3.8597    0.0000 C   0  0  0  0  0  0  0  0  0  0  0  0
    1.8107   -2.3597    0.0000 C   0  0  0  0  0  0  0  0  0  0  0  0
    3.1965   -1.7857    0.0000 C   0  0  0  0  0  0  0  0  0  0  0  0
    3.3923   -0.2985    0.0000 O   0  0  0  0  0  0  0  0  0  0  0  0
    4.3865   -2.6988    0.0000 N   0  0  0  0  0  0  0  0  0  0  0  0
    5.7723   -2.1248    0.0000 C   0  0  0  0  0  0  0  0  0  0  0  0
    6.9624   -3.0379    0.0000 N   0  0  0  0  0  0  0  0  0  0  0  0
    8.3482   -2.4639    0.0000 N   0  0  0  0  0  0  0  0  0  0  0  0
    8.5440   -0.9767    0.0000 N   0  0  0  0  0  0  0  0  0  0  0  0
    7.3539   -0.0636    0.0000 N   0  0  0  0  0  0  0  0  0  0  0  0
    5.9681   -0.6376    0.0000 N   0  0  0  0  0  0  0  0  0  0  0  0
    0.7500   -1.2990    0.0000 C   0  0  0  0  0  0  0  0  0  0  0  0
    1.5000    0.0000    0.0000 C   0  0  0  0  0  0  0  0  0  0  0  0
    0.7500    1.2990    0.0000 C   0  0  0  0  0  0  0  0  0  0  0  0
   -0.7500    1.2990    0.0000 C   0  0  0  0  0  0  0  0  0  0  0  0
   -1.5000    0.0000    0.0000 C   0  0  0  0  0  0  0  0  0  0  0  0
   -0.7500   -1.2990    0.0000 C   0  0  0  0  0  0  0  0  0  0  0  0
  1  2  1  0
  2  3  1  0
  3  4  1  0
  4  5  1  0
  5  6  1  0
  6  7  1  0
  7  8  1  0
  8  9  2  0
  8 10  1  0
 10 11  1  0
 11 12  2  0
 12 13  1  0
 13 14  2  0
 14 15  1  0
 15 16  2  0
  7 17  1  0
 17 18  2  0
 18 19  1  0
 19 20  2  0
 20 21  1  0
 21 22  2  0
 22  2  1  0
 16 11  1  0
 22 17  1  0
M  END
>  <Title>  (966) 
idABJFgen14

$$$$

     RDKit          2D

 36 40  0  0  0  0  0  0  0  0999 V2000
   -3.1476   -2.1380    0.0000 C   0  0  0  0  0  0  0  0  0  0  0  0
   -1.6852   -2.4718    0.0000 C   0  0  0  0  0  0  0  0  0  0  0  0
   -1.3515   -3.9342    0.0000 C   0  0  0  0  0  0  0  0  0  0  0  0
   -0.0000   -4.5850    0.0000 C   0  0  0  0  0  0  0  0  0  0  0  0
    1.3515   -3.9342    0.0000 C   0  0  0  0  0  0  0  0  0  0  0  0
    1.6852   -2.4718    0.0000 C   0  0  0  0  0  0  0  0  0  0  0  0
    3.1476   -2.1380    0.0000 C   0  0  0  0  0  0  0  0  0  0  0  0
    3.5898   -0.7046    0.0000 O   0  0  0  0  0  0  0  0  0  0  0  0
    4.1679   -3.2376    0.0000 N   0  0  0  0  0  0  0  0  0  0  0  0
    5.6303   -2.9038    0.0000 C   0  0  0  0  0  0  0  0  0  0  0  0
    6.2198   -1.5245    0.0000 N   0  0  0  0  0  0  0  0  0  0  0  0
    7.7138   -1.6590    0.0000 N   0  0  0  0  0  0  0  0  0  0  0  0
    8.0476   -3.1214    0.0000 N   0  0  0  0  0  0  0  0  0  0  0  0
    6.7599   -3.8907    0.0000 N   0  0  0  0  0  0  0  0  0  0  0  0
    6.6254   -5.3847    0.0000 C   0  0  0  0  0  0  0  0  0  0  0  0
    7.7550   -6.3716    0.0000 C   0  0  0  0  0  0  0  0  0  0  0  0
    7.1655   -7.7509    0.0000 C   0  0  0  0  0  0  0  0  0  0  0  0
    5.6715   -7.6164    0.0000 C   0  0  0  0  0  0  0  0  0  0  0  0
    4.6846   -8.7460    0.0000 O   0  0  0  0  0  0  0  0  0  0  0  0
    3.2129   -8.4561    0.0000 C   0  0  0  0  0  0  0  0  0  0  0  0
    2.7281   -7.0366    0.0000 O   0  0  0  0  0  0  0  0  0  0  0  0
    2.2260   -9.5857    0.0000 N   0  0  0  0  0  0  0  0  0  0  0  0
    0.7543   -9.2959    0.0000 C   0  0  0  0  0  0  0  0  0  0  0  0
    0.2695   -7.8764    0.0000 N   0  0  0  0  0  0  0  0  0  0  0  0
   -1.2023   -7.5865    0.0000 N   0  0  0  0  0  0  0  0  0  0  0  0
   -2.1892   -8.7161    0.0000 N   0  0  0  0  0  0  0  0  0  0  0  0
   -1.7044  -10.1356    0.0000 N   0  0  0  0  0  0  0  0  0  0  0  0
   -0.2326  -10.4255    0.0000 N   0  0  0  0  0  0  0  0  0  0  0  0
    5.3378   -6.1540    0.0000 C   0  0  0  0  0  0  0  0  0  0  0  0
    3.9585   -5.5645    0.0000 O   0  0  0  0  0  0  0  0  0  0  0  0
    0.7500   -1.2990    0.0000 C   0  0  0  0  0  0  0  0  0  0  0  0
    1.5000    0.0000    0.0000 C   0  0  0  0  0  0  0  0  0  0  0  0
    0.7500    1.2990    0.0000 C   0  0  0  0  0  0  0  0  0  0  0  0
   -0.7500    1.2990    0.0000 C   0  0  0  0  0  0  0  0  0  0  0  0
   -1.5000    0.0000    0.0000 C   0  0  0  0  0  0  0  0  0  0  0  0
   -0.7500   -1.2990    0.0000 C   0  0  0  0  0  0  0  0  0  0  0  0
  1  2  1  0
  2  3  2  0
  3  4  1  0
  4  5  1  0
  5  6  1  0
  6  7  1  0
  7  8  2  0
  7  9  1  0
  9 10  1  0
 10 11  2  0
 11 12  1  0
 12 13  2  0
 13 14  1  0
 14 15  1  0
 15 16  2  0
 16 17  1  0
 17 18  2  0
 18 19  1  0
 19 20  1  0
 20 21  2  0
 20 22  1  0
 22 23  1  0
 23 24  2  0
 24 25  1  0
 25 26  2  0
 26 27  1  0
 27 28  2  0
 18 29  1  0
 29 30  2  0
  6 31  1  0
 31 32  2  0
 32 33  1  0
 33 34  2  0
 34 35  1  0
 35 36  2  0
 36  2  1  0
 14 10  1  0
 29 15  1  0
 36 31  1  0
 28 23  1  0
M  END
>  <Title>  (967) 
idABJGgen14

$$$$

     RDKit          2D

  6  5  0  0  0  0  0  0  0  0999 V2000
    0.0000    0.0000    0.0000 C   0  0  0  0  0  0  0  0  0  0  0  0
    1.2990    0.7500    0.0000 C   0  0  0  0  0  0  0  0  0  0  0  0
    2.5981   -0.0000    0.0000 C   0  0  0  0  0  0  0  0  0  0  0  0
    3.8971    0.7500    0.0000 C   0  0  0  0  0  0  0  0  0  0  0  0
    5.1962   -0.0000    0.0000 C   0  0  0  0  0  0  0  0  0  0  0  0
    6.4952    0.7500    0.0000 C   0  0  0  0  0  0  0  0  0  0  0  0
  1  2  1  0
  2  3  1  0
  3  4  1  0
  4  5  1  0
  5  6  1  0
M  END
>  <Title>  (968) 
idABJHgen14

$$$$

     RDKit          2D

 33 37  0  0  0  0  0  0  0  0999 V2000
   -2.6401   -3.1891    0.0000 C   0  0  0  0  0  0  0  0  0  0  0  0
   -1.2135   -2.7256    0.0000 N   0  0  0  0  0  0  0  0  0  0  0  0
   -0.0000   -3.6073    0.0000 C   0  0  0  0  0  0  0  0  0  0  0  0
    1.2135   -2.7256    0.0000 C   0  0  0  0  0  0  0  0  0  0  0  0
    2.6401   -3.1891    0.0000 C   0  0  0  0  0  0  0  0  0  0  0  0
    3.7548   -2.1855    0.0000 O   0  0  0  0  0  0  0  0  0  0  0  0
    2.9520   -4.6564    0.0000 N   0  0  0  0  0  0  0  0  0  0  0  0
    4.3786   -5.1199    0.0000 C   0  0  0  0  0  0  0  0  0  0  0  0
    5.5921   -4.2382    0.0000 N   0  0  0  0  0  0  0  0  0  0  0  0
    6.8056   -5.1199    0.0000 N   0  0  0  0  0  0  0  0  0  0  0  0
    6.3421   -6.5465    0.0000 N   0  0  0  0  0  0  0  0  0  0  0  0
    4.8421   -6.5465    0.0000 N   0  0  0  0  0  0  0  0  0  0  0  0
    3.9604   -7.7600    0.0000 N   0  0  0  0  0  0  0  0  0  0  0  0
    4.4239   -9.1866    0.0000 C   0  0  0  0  0  0  0  0  0  0  0  0
    3.2104  -10.0683    0.0000 C   0  0  0  0  0  0  0  0  0  0  0  0
    1.9969   -9.1866    0.0000 N   0  0  0  0  0  0  0  0  0  0  0  0
    0.5703   -9.6501    0.0000 C   0  0  0  0  0  0  0  0  0  0  0  0
    0.2584  -11.1173    0.0000 O   0  0  0  0  0  0  0  0  0  0  0  0
   -0.5444   -8.6464    0.0000 N   0  0  0  0  0  0  0  0  0  0  0  0
   -1.9710   -9.1099    0.0000 C   0  0  0  0  0  0  0  0  0  0  0  0
   -3.0857   -8.1062    0.0000 N   0  0  0  0  0  0  0  0  0  0  0  0
   -4.5123   -8.5698    0.0000 N   0  0  0  0  0  0  0  0  0  0  0  0
   -4.8242  -10.0370    0.0000 N   0  0  0  0  0  0  0  0  0  0  0  0
   -3.7095  -11.0407    0.0000 N   0  0  0  0  0  0  0  0  0  0  0  0
   -2.2829  -10.5772    0.0000 N   0  0  0  0  0  0  0  0  0  0  0  0
    2.4604   -7.7600    0.0000 C   0  0  0  0  0  0  0  0  0  0  0  0
    1.5787   -6.5465    0.0000 O   0  0  0  0  0  0  0  0  0  0  0  0
    0.7500   -1.2990    0.0000 C   0  0  0  0  0  0  0  0  0  0  0  0
    1.5000    0.0000    0.0000 C   0  0  0  0  0  0  0  0  0  0  0  0
    0.7500    1.2990    0.0000 C   0  0  0  0  0  0  0  0  0  0  0  0
   -0.7500    1.2990    0.0000 C   0  0  0  0  0  0  0  0  0  0  0  0
   -1.5000    0.0000    0.0000 C   0  0  0  0  0  0  0  0  0  0  0  0
   -0.7500   -1.2990    0.0000 C   0  0  0  0  0  0  0  0  0  0  0  0
  1  2  1  0
  2  3  1  0
  3  4  2  0
  4  5  1  0
  5  6  2  0
  5  7  1  0
  7  8  1  0
  8  9  2  0
  9 10  1  0
 10 11  2  0
 11 12  1  0
 12 13  1  0
 13 14  1  0
 14 15  1  0
 15 16  1  0
 16 17  1  0
 17 18  2  0
 17 19  1  0
 19 20  1  0
 20 21  2  0
 21 22  1  0
 22 23  2  0
 23 24  1  0
 24 25  2  0
 16 26  1  0
 26 27  2  0
  4 28  1  0
 28 29  2  0
 29 30  1  0
 30 31  2  0
 31 32  1  0
 32 33  2  0
 33  2  1  0
 12  8  1  0
 26 13  1  0
 33 28  1  0
 25 20  1  0
M  END
>  <Title>  (969) 
idABJIgen14

$$$$

     RDKit          2D

 13 13  0  0  0  0  0  0  0  0999 V2000
    8.2500    1.2990    0.0000 C   0  0  0  0  0  0  0  0  0  0  0  0
    7.5000   -0.0000    0.0000 C   0  0  0  0  0  0  0  0  0  0  0  0
    6.0000    0.0000    0.0000 C   0  0  0  0  0  0  0  0  0  0  0  0
    5.2500   -1.2990    0.0000 C   0  0  0  0  0  0  0  0  0  0  0  0
    6.0000   -2.5981    0.0000 C   0  0  0  0  0  0  0  0  0  0  0  0
    3.7500   -1.2990    0.0000 C   0  0  0  0  0  0  0  0  0  0  0  0
    3.0000    0.0000    0.0000 C   0  0  0  0  0  0  0  0  0  0  0  0
    1.5000    0.0000    0.0000 C   0  0  0  0  0  0  0  0  0  0  0  0
    0.7500   -1.2990    0.0000 C   0  0  0  0  0  0  0  0  0  0  0  0
   -0.7500   -1.2990    0.0000 C   0  0  0  0  0  0  0  0  0  0  0  0
   -1.5000    0.0000    0.0000 C   0  0  0  0  0  0  0  0  0  0  0  0
   -0.7500    1.2990    0.0000 N   0  0  0  0  0  0  0  0  0  0  0  0
    0.7500    1.2990    0.0000 C   0  0  0  0  0  0  0  0  0  0  0  0
  1  2  1  0
  2  3  1  0
  3  4  1  0
  4  5  1  0
  4  6  1  0
  6  7  1  0
  7  8  1  0
  8  9  2  0
  9 10  1  0
 10 11  2  0
 11 12  1  0
 12 13  2  0
 13  8  1  0
M  END
>  <Title>  (970) 
idABJJgen14

$$$$

     RDKit          2D

 14 14  0  0  0  0  0  0  0  0999 V2000
    9.7500   -3.8971    0.0000 C   0  0  0  0  0  0  0  0  0  0  0  0
    8.2500   -3.8971    0.0000 C   0  0  0  0  0  0  0  0  0  0  0  0
    7.5000   -2.5981    0.0000 C   0  0  0  0  0  0  0  0  0  0  0  0
    6.0000   -2.5981    0.0000 C   0  0  0  0  0  0  0  0  0  0  0  0
    5.2500   -1.2990    0.0000 C   0  0  0  0  0  0  0  0  0  0  0  0
    6.0000    0.0000    0.0000 O   0  0  0  0  0  0  0  0  0  0  0  0
    3.7500   -1.2990    0.0000 N   0  0  0  0  0  0  0  0  0  0  0  0
    3.0000    0.0000    0.0000 C   0  0  0  0  0  0  0  0  0  0  0  0
    1.5000    0.0000    0.0000 C   0  0  0  0  0  0  0  0  0  0  0  0
    0.7500   -1.2990    0.0000 C   0  0  0  0  0  0  0  0  0  0  0  0
   -0.7500   -1.2990    0.0000 C   0  0  0  0  0  0  0  0  0  0  0  0
   -1.5000    0.0000    0.0000 C   0  0  0  0  0  0  0  0  0  0  0  0
   -0.7500    1.2990    0.0000 N   0  0  0  0  0  0  0  0  0  0  0  0
    0.7500    1.2990    0.0000 C   0  0  0  0  0  0  0  0  0  0  0  0
  1  2  2  0
  2  3  1  0
  3  4  1  0
  4  5  1  0
  5  6  2  0
  5  7  1  0
  7  8  1  0
  8  9  1  0
  9 10  2  0
 10 11  1  0
 11 12  2  0
 12 13  1  0
 13 14  2  0
 14  9  1  0
M  END
>  <Title>  (971) 
idABJKgen14

$$$$

     RDKit          2D

  6  5  0  0  0  0  0  0  0  0999 V2000
    0.0000    0.0000    0.0000 C   0  0  0  0  0  0  0  0  0  0  0  0
    1.2990    0.7500    0.0000 C   0  0  0  0  0  0  0  0  0  0  0  0
    2.5981   -0.0000    0.0000 C   0  0  0  0  0  0  0  0  0  0  0  0
    1.2990    2.2500    0.0000 C   0  0  0  0  0  0  0  0  0  0  0  0
    1.2990    3.7500    0.0000 C   0  0  0  0  0  0  0  0  0  0  0  0
    1.2990    5.2500    0.0000 O   0  0  0  0  0  0  0  0  0  0  0  0
  1  2  1  0
  2  3  1  0
  2  4  1  0
  4  5  3  0
  5  6  1  0
M  END
>  <Title>  (972) 
idABJLgen14

$$$$

     RDKit          2D

  4  3  0  0  0  0  0  0  0  0999 V2000
    0.0000    0.0000    0.0000 C   0  0  0  0  0  0  0  0  0  0  0  0
    1.2990    0.7500    0.0000 C   0  0  0  0  0  0  0  0  0  0  0  0
    2.5981   -0.0000    0.0000 C   0  0  0  0  0  0  0  0  0  0  0  0
    3.8971    0.7500    0.0000 C   0  0  0  0  0  0  0  0  0  0  0  0
  1  2  2  0
  2  3  1  0
  3  4  1  0
M  END
>  <Title>  (973) 
idABJMgen14

$$$$

     RDKit          2D

 18 17  0  0  0  0  0  0  0  0999 V2000
    0.0000    0.0000    0.0000 C   0  0  0  0  0  0  0  0  0  0  0  0
   -0.0000   -1.5000    0.0000 C   0  0  0  0  0  0  0  0  0  0  0  0
   -0.0000   -3.0000    0.0000 C   0  0  0  0  0  0  0  0  0  0  0  0
   -0.0000   -4.5000    0.0000 C   0  0  0  0  0  0  0  0  0  0  0  0
   -0.0000   -6.0000    0.0000 C   0  0  0  0  0  0  0  0  0  0  0  0
    1.2990   -6.7500    0.0000 N   0  0  0  0  0  0  0  0  0  0  0  0
    1.2990   -8.2500    0.0000 C   0  0  0  0  0  0  0  0  0  0  0  0
   -0.0000   -9.0000    0.0000 O   0  0  0  0  0  0  0  0  0  0  0  0
    2.5981   -9.0000    0.0000 C   0  0  0  0  0  0  0  0  0  0  0  0
    2.5981  -10.5000    0.0000 C   0  0  0  0  0  0  0  0  0  0  0  0
    3.8971  -11.2500    0.0000 C   0  0  0  0  0  0  0  0  0  0  0  0
   -1.2990   -6.7500    0.0000 N   0  0  0  0  0  0  0  0  0  0  0  0
   -2.5981   -6.0000    0.0000 C   0  0  0  0  0  0  0  0  0  0  0  0
   -2.5981   -4.5000    0.0000 O   0  0  0  0  0  0  0  0  0  0  0  0
   -3.8971   -6.7500    0.0000 C   0  0  0  0  0  0  0  0  0  0  0  0
   -5.1962   -6.0000    0.0000 C   0  0  0  0  0  0  0  0  0  0  0  0
   -6.4952   -6.7500    0.0000 C   0  0  0  0  0  0  0  0  0  0  0  0
   -7.7942   -6.0000    0.0000 C   0  0  0  0  0  0  0  0  0  0  0  0
  1  2  3  0
  2  3  1  0
  3  4  3  0
  4  5  1  0
  5  6  1  0
  6  7  1  0
  7  8  2  0
  7  9  1  0
  9 10  1  0
 10 11  1  0
  5 12  1  0
 12 13  1  0
 13 14  2  0
 13 15  1  0
 15 16  1  0
 16 17  1  0
 17 18  1  0
M  END
>  <Title>  (974) 
idABJNgen14

$$$$

     RDKit          2D

  9  9  0  0  0  0  0  0  0  0999 V2000
    5.2500   -1.2990    0.0000 C   0  0  0  0  0  0  0  0  0  0  0  0
    3.7500   -1.2990    0.0000 C   0  0  0  0  0  0  0  0  0  0  0  0
    3.0000    0.0000    0.0000 C   0  0  0  0  0  0  0  0  0  0  0  0
    1.5000    0.0000    0.0000 C   0  0  0  0  0  0  0  0  0  0  0  0
    0.7500   -1.2990    0.0000 C   0  0  0  0  0  0  0  0  0  0  0  0
   -0.7500   -1.2990    0.0000 C   0  0  0  0  0  0  0  0  0  0  0  0
   -1.5000    0.0000    0.0000 C   0  0  0  0  0  0  0  0  0  0  0  0
   -0.7500    1.2990    0.0000 N   0  0  0  0  0  0  0  0  0  0  0  0
    0.7500    1.2990    0.0000 C   0  0  0  0  0  0  0  0  0  0  0  0
  1  2  1  0
  2  3  1  0
  3  4  1  0
  4  5  2  0
  5  6  1  0
  6  7  2  0
  7  8  1  0
  8  9  2  0
  9  4  1  0
M  END
>  <Title>  (975) 
idABJOgen14

$$$$

     RDKit          2D

 35 39  0  0  0  0  0  0  0  0999 V2000
   -3.0000   -2.5981    0.0000 C   0  0  0  0  0  0  0  0  0  0  0  0
   -1.5000   -2.5981    0.0000 C   0  0  0  0  0  0  0  0  0  0  0  0
   -0.7500   -3.8971    0.0000 C   0  0  0  0  0  0  0  0  0  0  0  0
    0.7500   -3.8971    0.0000 C   0  0  0  0  0  0  0  0  0  0  0  0
    1.5000   -2.5981    0.0000 C   0  0  0  0  0  0  0  0  0  0  0  0
    3.0000   -2.5981    0.0000 C   0  0  0  0  0  0  0  0  0  0  0  0
    3.7500   -1.2990    0.0000 O   0  0  0  0  0  0  0  0  0  0  0  0
    3.7500   -3.8971    0.0000 N   0  0  0  0  0  0  0  0  0  0  0  0
    5.2500   -3.8971    0.0000 C   0  0  0  0  0  0  0  0  0  0  0  0
    6.1317   -2.6836    0.0000 N   0  0  0  0  0  0  0  0  0  0  0  0
    7.5583   -3.1471    0.0000 N   0  0  0  0  0  0  0  0  0  0  0  0
    7.5583   -4.6471    0.0000 N   0  0  0  0  0  0  0  0  0  0  0  0
    6.1317   -5.1106    0.0000 N   0  0  0  0  0  0  0  0  0  0  0  0
    5.6682   -6.5372    0.0000 N   0  0  0  0  0  0  0  0  0  0  0  0
    6.5498   -7.7508    0.0000 C   0  0  0  0  0  0  0  0  0  0  0  0
    5.6682   -8.9643    0.0000 C   0  0  0  0  0  0  0  0  0  0  0  0
    4.2416   -8.5008    0.0000 N   0  0  0  0  0  0  0  0  0  0  0  0
    3.0280   -9.3824    0.0000 C   0  0  0  0  0  0  0  0  0  0  0  0
    3.1848  -10.8742    0.0000 O   0  0  0  0  0  0  0  0  0  0  0  0
    1.6577   -8.7723    0.0000 N   0  0  0  0  0  0  0  0  0  0  0  0
    0.4442   -9.6540    0.0000 C   0  0  0  0  0  0  0  0  0  0  0  0
   -0.9261   -9.0439    0.0000 N   0  0  0  0  0  0  0  0  0  0  0  0
   -2.1396   -9.9256    0.0000 N   0  0  0  0  0  0  0  0  0  0  0  0
   -1.9829  -11.4174    0.0000 N   0  0  0  0  0  0  0  0  0  0  0  0
   -0.6125  -12.0275    0.0000 N   0  0  0  0  0  0  0  0  0  0  0  0
    0.6010  -11.1458    0.0000 N   0  0  0  0  0  0  0  0  0  0  0  0
    4.2416   -7.0008    0.0000 C   0  0  0  0  0  0  0  0  0  0  0  0
    3.0280   -6.1191    0.0000 O   0  0  0  0  0  0  0  0  0  0  0  0
    0.7500   -1.2990    0.0000 C   0  0  0  0  0  0  0  0  0  0  0  0
    1.5000    0.0000    0.0000 C   0  0  0  0  0  0  0  0  0  0  0  0
    0.7500    1.2990    0.0000 C   0  0  0  0  0  0  0  0  0  0  0  0
   -0.7500    1.2990    0.0000 C   0  0  0  0  0  0  0  0  0  0  0  0
   -1.5000    2.5981    0.0000 O   0  0  0  0  0  0  0  0  0  0  0  0
   -1.5000    0.0000    0.0000 C   0  0  0  0  0  0  0  0  0  0  0  0
   -0.7500   -1.2990    0.0000 C   0  0  0  0  0  0  0  0  0  0  0  0
  1  2  1  0
  2  3  1  0
  3  4  2  0
  4  5  1  0
  5  6  1  0
  6  7  2  0
  6  8  1  0
  8  9  1  0
  9 10  2  0
 10 11  1  0
 11 12  2  0
 12 13  1  0
 13 14  1  0
 14 15  1  0
 15 16  1  0
 16 17  1  0
 17 18  1  0
 18 19  2  0
 18 20  1  0
 20 21  1  0
 21 22  2  0
 22 23  1  0
 23 24  2  0
 24 25  1  0
 25 26  2  0
 17 27  1  0
 27 28  2  0
  5 29  1  0
 29 30  2  0
 30 31  1  0
 31 32  2  0
 32 33  1  0
 32 34  1  0
 34 35  2  0
 35  2  1  0
 13  9  1  0
 27 14  1  0
 35 29  1  0
 26 21  1  0
M  END
>  <Title>  (976) 
idABJPgen14

$$$$

     RDKit          2D

 17 18  0  0  0  0  0  0  0  0999 V2000
    3.0000   -5.1962    0.0000 O   0  0  0  0  0  0  0  0  0  0  0  0
    1.5000   -5.1962    0.0000 C   0  0  0  0  0  0  0  0  0  0  0  0
    0.7500   -6.4952    0.0000 C   0  0  0  0  0  0  0  0  0  0  0  0
    1.5000   -7.7942    0.0000 C   0  0  0  0  0  0  0  0  0  0  0  0
    2.9918   -7.9510    0.0000 C   0  0  0  0  0  0  0  0  0  0  0  0
    3.3037   -9.4182    0.0000 C   0  0  0  0  0  0  0  0  0  0  0  0
    2.0046  -10.1682    0.0000 C   0  0  0  0  0  0  0  0  0  0  0  0
    0.8899   -9.1645    0.0000 N   0  0  0  0  0  0  0  0  0  0  0  0
    0.7500   -3.8971    0.0000 N   0  0  0  0  0  0  0  0  0  0  0  0
    1.5000   -2.5981    0.0000 C   0  0  0  0  0  0  0  0  0  0  0  0
    0.7500   -1.2990    0.0000 C   0  0  0  0  0  0  0  0  0  0  0  0
    1.5000    0.0000    0.0000 C   0  0  0  0  0  0  0  0  0  0  0  0
    0.7500    1.2990    0.0000 C   0  0  0  0  0  0  0  0  0  0  0  0
   -0.7500    1.2990    0.0000 C   0  0  0  0  0  0  0  0  0  0  0  0
   -1.5000    2.5981    0.0000 F   0  0  0  0  0  0  0  0  0  0  0  0
   -1.5000    0.0000    0.0000 C   0  0  0  0  0  0  0  0  0  0  0  0
   -0.7500   -1.2990    0.0000 C   0  0  0  0  0  0  0  0  0  0  0  0
  1  2  1  0
  2  3  1  0
  3  4  1  0
  4  5  2  0
  5  6  1  0
  6  7  1  0
  7  8  2  0
  2  9  1  0
  9 10  1  0
 10 11  1  0
 11 12  2  0
 12 13  1  0
 13 14  2  0
 14 15  1  0
 14 16  1  0
 16 17  2  0
  8  4  1  0
 17 11  1  0
M  END
>  <Title>  (977) 
idABJQgen14

$$$$

     RDKit          2D

 35 39  0  0  0  0  0  0  0  0999 V2000
   -3.0000   -2.5981    0.0000 C   0  0  0  0  0  0  0  0  0  0  0  0
   -1.5000   -2.5981    0.0000 C   0  0  0  0  0  0  0  0  0  0  0  0
   -0.7500   -3.8971    0.0000 C   0  0  0  0  0  0  0  0  0  0  0  0
    0.7500   -3.8971    0.0000 C   0  0  0  0  0  0  0  0  0  0  0  0
    1.5000   -2.5981    0.0000 C   0  0  0  0  0  0  0  0  0  0  0  0
    3.0000   -2.5981    0.0000 C   0  0  0  0  0  0  0  0  0  0  0  0
    3.7500   -1.2990    0.0000 O   0  0  0  0  0  0  0  0  0  0  0  0
    3.7500   -3.8971    0.0000 N   0  0  0  0  0  0  0  0  0  0  0  0
    5.2500   -3.8971    0.0000 C   0  0  0  0  0  0  0  0  0  0  0  0
    6.1317   -2.6836    0.0000 N   0  0  0  0  0  0  0  0  0  0  0  0
    7.5583   -3.1471    0.0000 N   0  0  0  0  0  0  0  0  0  0  0  0
    7.5583   -4.6471    0.0000 N   0  0  0  0  0  0  0  0  0  0  0  0
    6.1317   -5.1106    0.0000 N   0  0  0  0  0  0  0  0  0  0  0  0
    5.6682   -6.5372    0.0000 C   0  0  0  0  0  0  0  0  0  0  0  0
    6.5498   -7.7508    0.0000 C   0  0  0  0  0  0  0  0  0  0  0  0
    5.6682   -8.9643    0.0000 C   0  0  0  0  0  0  0  0  0  0  0  0
    4.2416   -8.5008    0.0000 C   0  0  0  0  0  0  0  0  0  0  0  0
    3.0280   -9.3824    0.0000 C   0  0  0  0  0  0  0  0  0  0  0  0
    3.1848  -10.8742    0.0000 O   0  0  0  0  0  0  0  0  0  0  0  0
    1.6577   -8.7723    0.0000 N   0  0  0  0  0  0  0  0  0  0  0  0
    0.4442   -9.6540    0.0000 C   0  0  0  0  0  0  0  0  0  0  0  0
   -0.9261   -9.0439    0.0000 N   0  0  0  0  0  0  0  0  0  0  0  0
   -2.1396   -9.9256    0.0000 N   0  0  0  0  0  0  0  0  0  0  0  0
   -1.9829  -11.4174    0.0000 N   0  0  0  0  0  0  0  0  0  0  0  0
   -0.6125  -12.0275    0.0000 N   0  0  0  0  0  0  0  0  0  0  0  0
    0.6010  -11.1458    0.0000 N   0  0  0  0  0  0  0  0  0  0  0  0
    4.2416   -7.0008    0.0000 C   0  0  0  0  0  0  0  0  0  0  0  0
    3.0280   -6.1191    0.0000 O   0  0  0  0  0  0  0  0  0  0  0  0
    0.7500   -1.2990    0.0000 C   0  0  0  0  0  0  0  0  0  0  0  0
    1.5000    0.0000    0.0000 C   0  0  0  0  0  0  0  0  0  0  0  0
    0.7500    1.2990    0.0000 C   0  0  0  0  0  0  0  0  0  0  0  0
   -0.7500    1.2990    0.0000 C   0  0  0  0  0  0  0  0  0  0  0  0
   -1.5000    2.5981    0.0000 O   0  0  0  0  0  0  0  0  0  0  0  0
   -1.5000    0.0000    0.0000 C   0  0  0  0  0  0  0  0  0  0  0  0
   -0.7500   -1.2990    0.0000 C   0  0  0  0  0  0  0  0  0  0  0  0
  1  2  1  0
  2  3  2  0
  3  4  1  0
  4  5  2  0
  5  6  1  0
  6  7  2  0
  6  8  1  0
  8  9  1  0
  9 10  2  0
 10 11  1  0
 11 12  2  0
 12 13  1  0
 13 14  1  0
 14 15  2  0
 15 16  1  0
 16 17  2  0
 17 18  1  0
 18 19  2  0
 18 20  1  0
 20 21  1  0
 21 22  2  0
 22 23  1  0
 23 24  2  0
 24 25  1  0
 25 26  2  0
 17 27  1  0
 27 28  2  0
  5 29  1  0
 29 30  2  0
 30 31  1  0
 31 32  2  0
 32 33  1  0
 32 34  1  0
 34 35  2  0
 35  2  1  0
 13  9  1  0
 27 14  1  0
 35 29  1  0
 26 21  1  0
M  END
>  <Title>  (978) 
idABJRgen14

$$$$

     RDKit          2D

  6  5  0  0  0  0  0  0  0  0999 V2000
    0.0000    0.0000    0.0000 C   0  0  0  0  0  0  0  0  0  0  0  0
    1.2990    0.7500    0.0000 N   0  0  0  0  0  0  0  0  0  0  0  0
    2.5981   -0.0000    0.0000 C   0  0  0  0  0  0  0  0  0  0  0  0
    3.8971    0.7500    0.0000 C   0  0  0  0  0  0  0  0  0  0  0  0
    2.5981   -1.5000    0.0000 C   0  0  0  0  0  0  0  0  0  0  0  0
    2.5981   -3.0000    0.0000 N   0  0  0  0  0  0  0  0  0  0  0  0
  1  2  1  0
  2  3  1  0
  3  4  1  0
  3  5  1  0
  5  6  3  0
M  END
>  <Title>  (979) 
idABJSgen14

$$$$

     RDKit          2D

 18 19  0  0  0  0  0  0  0  0999 V2000
   -0.0000  -10.3923    0.0000 N   0  0  0  0  0  0  0  0  0  0  0  0
    0.7500   -9.0933    0.0000 C   0  0  0  0  0  0  0  0  0  0  0  0
    1.5000   -7.7942    0.0000 C   0  0  0  0  0  0  0  0  0  0  0  0
    0.7500   -6.4952    0.0000 C   0  0  0  0  0  0  0  0  0  0  0  0
    1.5000   -5.1962    0.0000 C   0  0  0  0  0  0  0  0  0  0  0  0
    0.7500   -3.8971    0.0000 N   0  0  0  0  0  0  0  0  0  0  0  0
    1.5000   -2.5981    0.0000 C   0  0  0  0  0  0  0  0  0  0  0  0
    0.7500   -1.2990    0.0000 C   0  0  0  0  0  0  0  0  0  0  0  0
    1.5000    0.0000    0.0000 C   0  0  0  0  0  0  0  0  0  0  0  0
    0.7500    1.2990    0.0000 C   0  0  0  0  0  0  0  0  0  0  0  0
   -0.7500    1.2990    0.0000 C   0  0  0  0  0  0  0  0  0  0  0  0
   -1.5000    0.0000    0.0000 N   0  0  0  0  0  0  0  0  0  0  0  0
   -0.7500   -1.2990    0.0000 C   0  0  0  0  0  0  0  0  0  0  0  0
    3.0000   -5.1962    0.0000 N   0  0  0  0  0  0  0  0  0  0  0  0
    3.8817   -3.9826    0.0000 C   0  0  0  0  0  0  0  0  0  0  0  0
    5.3083   -4.4462    0.0000 C   0  0  0  0  0  0  0  0  0  0  0  0
    5.3083   -5.9462    0.0000 C   0  0  0  0  0  0  0  0  0  0  0  0
    3.8817   -6.4097    0.0000 C   0  0  0  0  0  0  0  0  0  0  0  0
  1  2  3  0
  2  3  1  0
  3  4  1  0
  4  5  1  0
  5  6  1  0
  6  7  1  0
  7  8  1  0
  8  9  2  0
  9 10  1  0
 10 11  2  0
 11 12  1  0
 12 13  2  0
  5 14  1  0
 14 15  1  0
 15 16  2  0
 16 17  1  0
 17 18  2  0
 13  8  1  0
 18 14  1  0
M  END
>  <Title>  (980) 
idABJTgen14

$$$$

     RDKit          2D

 10 10  0  0  0  0  0  0  0  0999 V2000
    6.0000   -2.5981    0.0000 C   0  0  0  0  0  0  0  0  0  0  0  0
    5.2500   -1.2990    0.0000 C   0  0  0  0  0  0  0  0  0  0  0  0
    3.7500   -1.2990    0.0000 C   0  0  0  0  0  0  0  0  0  0  0  0
    3.0000    0.0000    0.0000 C   0  0  0  0  0  0  0  0  0  0  0  0
    1.5000    0.0000    0.0000 C   0  0  0  0  0  0  0  0  0  0  0  0
    0.7500   -1.2990    0.0000 C   0  0  0  0  0  0  0  0  0  0  0  0
   -0.7500   -1.2990    0.0000 C   0  0  0  0  0  0  0  0  0  0  0  0
   -1.5000    0.0000    0.0000 C   0  0  0  0  0  0  0  0  0  0  0  0
   -0.7500    1.2990    0.0000 N   0  0  0  0  0  0  0  0  0  0  0  0
    0.7500    1.2990    0.0000 C   0  0  0  0  0  0  0  0  0  0  0  0
  1  2  2  0
  2  3  1  0
  3  4  2  3
  4  5  1  0
  5  6  2  0
  6  7  1  0
  7  8  2  0
  8  9  1  0
  9 10  2  0
 10  5  1  0
M  END
>  <Title>  (981) 
idABJUgen14

$$$$

     RDKit          2D

  8  8  0  0  0  0  0  0  0  0999 V2000
    3.0000    0.0000    0.0000 C   0  0  0  0  0  0  0  0  0  0  0  0
    1.5000    0.0000    0.0000 C   0  0  0  0  0  0  0  0  0  0  0  0
    0.7500   -1.2990    0.0000 C   0  0  0  0  0  0  0  0  0  0  0  0
   -0.7500   -1.2990    0.0000 C   0  0  0  0  0  0  0  0  0  0  0  0
   -1.5000    0.0000    0.0000 C   0  0  0  0  0  0  0  0  0  0  0  0
   -0.7500    1.2990    0.0000 C   0  0  0  0  0  0  0  0  0  0  0  0
   -1.5000    2.5981    0.0000 O   0  0  0  0  0  0  0  0  0  0  0  0
    0.7500    1.2990    0.0000 C   0  0  0  0  0  0  0  0  0  0  0  0
  1  2  1  0
  2  3  2  0
  3  4  1  0
  4  5  2  0
  5  6  1  0
  6  7  1  0
  6  8  2  0
  8  2  1  0
M  END
>  <Title>  (982) 
idABJVgen14

$$$$

     RDKit          2D

 12 12  0  0  0  0  0  0  0  0999 V2000
    7.5000   -2.5981    0.0000 C   0  0  0  0  0  0  0  0  0  0  0  0
    6.0000   -2.5981    0.0000 C   0  0  0  0  0  0  0  0  0  0  0  0
    5.2500   -1.2990    0.0000 C   0  0  0  0  0  0  0  0  0  0  0  0
    6.0000    0.0000    0.0000 O   0  0  0  0  0  0  0  0  0  0  0  0
    3.7500   -1.2990    0.0000 N   0  0  0  0  0  0  0  0  0  0  0  0
    3.0000    0.0000    0.0000 C   0  0  0  0  0  0  0  0  0  0  0  0
    1.5000    0.0000    0.0000 C   0  0  0  0  0  0  0  0  0  0  0  0
    0.7500   -1.2990    0.0000 C   0  0  0  0  0  0  0  0  0  0  0  0
   -0.7500   -1.2990    0.0000 C   0  0  0  0  0  0  0  0  0  0  0  0
   -1.5000    0.0000    0.0000 C   0  0  0  0  0  0  0  0  0  0  0  0
   -0.7500    1.2990    0.0000 N   0  0  0  0  0  0  0  0  0  0  0  0
    0.7500    1.2990    0.0000 C   0  0  0  0  0  0  0  0  0  0  0  0
  1  2  1  0
  2  3  1  0
  3  4  2  0
  3  5  1  0
  5  6  1  0
  6  7  1  0
  7  8  2  0
  8  9  1  0
  9 10  2  0
 10 11  1  0
 11 12  2  0
 12  7  1  0
M  END
>  <Title>  (983) 
idABJWgen14

$$$$

     RDKit          2D

 39 44  0  0  0  0  0  0  0  0999 V2000
   -3.4182    0.0420    0.0000 C   0  0  0  0  0  0  0  0  0  0  0  0
   -3.8817   -1.3846    0.0000 C   0  0  0  0  0  0  0  0  0  0  0  0
   -5.3083   -1.8481    0.0000 C   0  0  0  0  0  0  0  0  0  0  0  0
   -5.3083   -3.3481    0.0000 C   0  0  0  0  0  0  0  0  0  0  0  0
   -3.8817   -3.8116    0.0000 N   0  0  0  0  0  0  0  0  0  0  0  0
   -3.0000   -2.5981    0.0000 N   0  0  0  0  0  0  0  0  0  0  0  0
   -1.5000   -2.5981    0.0000 C   0  0  0  0  0  0  0  0  0  0  0  0
   -0.7500   -3.8971    0.0000 C   0  0  0  0  0  0  0  0  0  0  0  0
    0.7500   -3.8971    0.0000 C   0  0  0  0  0  0  0  0  0  0  0  0
    1.5000   -2.5981    0.0000 C   0  0  0  0  0  0  0  0  0  0  0  0
    3.0000   -2.5981    0.0000 C   0  0  0  0  0  0  0  0  0  0  0  0
    3.7500   -1.2990    0.0000 O   0  0  0  0  0  0  0  0  0  0  0  0
    3.7500   -3.8971    0.0000 N   0  0  0  0  0  0  0  0  0  0  0  0
    5.2500   -3.8971    0.0000 C   0  0  0  0  0  0  0  0  0  0  0  0
    6.1317   -2.6836    0.0000 N   0  0  0  0  0  0  0  0  0  0  0  0
    7.5583   -3.1471    0.0000 N   0  0  0  0  0  0  0  0  0  0  0  0
    7.5583   -4.6471    0.0000 N   0  0  0  0  0  0  0  0  0  0  0  0
    6.1317   -5.1106    0.0000 N   0  0  0  0  0  0  0  0  0  0  0  0
    5.6682   -6.5372    0.0000 C   0  0  0  0  0  0  0  0  0  0  0  0
    6.5498   -7.7508    0.0000 C   0  0  0  0  0  0  0  0  0  0  0  0
    5.6682   -8.9643    0.0000 C   0  0  0  0  0  0  0  0  0  0  0  0
    4.2416   -8.5008    0.0000 C   0  0  0  0  0  0  0  0  0  0  0  0
    3.0280   -9.3824    0.0000 C   0  0  0  0  0  0  0  0  0  0  0  0
    3.1848  -10.8742    0.0000 O   0  0  0  0  0  0  0  0  0  0  0  0
    1.6577   -8.7723    0.0000 N   0  0  0  0  0  0  0  0  0  0  0  0
    0.4442   -9.6540    0.0000 C   0  0  0  0  0  0  0  0  0  0  0  0
   -0.9261   -9.0439    0.0000 N   0  0  0  0  0  0  0  0  0  0  0  0
   -2.1396   -9.9256    0.0000 N   0  0  0  0  0  0  0  0  0  0  0  0
   -1.9829  -11.4174    0.0000 N   0  0  0  0  0  0  0  0  0  0  0  0
   -0.6125  -12.0275    0.0000 N   0  0  0  0  0  0  0  0  0  0  0  0
    0.6010  -11.1458    0.0000 N   0  0  0  0  0  0  0  0  0  0  0  0
    4.2416   -7.0008    0.0000 C   0  0  0  0  0  0  0  0  0  0  0  0
    3.0280   -6.1191    0.0000 O   0  0  0  0  0  0  0  0  0  0  0  0
    0.7500   -1.2990    0.0000 C   0  0  0  0  0  0  0  0  0  0  0  0
    1.5000    0.0000    0.0000 C   0  0  0  0  0  0  0  0  0  0  0  0
    0.7500    1.2990    0.0000 C   0  0  0  0  0  0  0  0  0  0  0  0
   -0.7500    1.2990    0.0000 C   0  0  0  0  0  0  0  0  0  0  0  0
   -1.5000    0.0000    0.0000 C   0  0  0  0  0  0  0  0  0  0  0  0
   -0.7500   -1.2990    0.0000 C   0  0  0  0  0  0  0  0  0  0  0  0
  1  2  1  0
  2  3  2  0
  3  4  1  0
  4  5  2  0
  5  6  1  0
  6  7  1  0
  7  8  2  0
  8  9  1  0
  9 10  2  0
 10 11  1  0
 11 12  2  0
 11 13  1  0
 13 14  1  0
 14 15  2  0
 15 16  1  0
 16 17  2  0
 17 18  1  0
 18 19  1  0
 19 20  2  0
 20 21  1  0
 21 22  2  0
 22 23  1  0
 23 24  2  0
 23 25  1  0
 25 26  1  0
 26 27  2  0
 27 28  1  0
 28 29  2  0
 29 30  1  0
 30 31  2  0
 22 32  1  0
 32 33  2  0
 10 34  1  0
 34 35  2  0
 35 36  1  0
 36 37  2  0
 37 38  1  0
 38 39  2  0
  6  2  1  0
 39  7  1  0
 18 14  1  0
 32 19  1  0
 39 34  1  0
 31 26  1  0
M  END
>  <Title>  (984) 
idABJXgen14

$$$$

     RDKit          2D

  8  8  0  0  0  0  0  0  0  0999 V2000
    5.0260   -1.2990    0.0000 C   0  0  0  0  0  0  0  0  0  0  0  0
    3.5260   -1.2990    0.0000 C   0  0  0  0  0  0  0  0  0  0  0  0
    2.7760    0.0000    0.0000 C   0  0  0  0  0  0  0  0  0  0  0  0
    1.2760    0.0000    0.0000 C   0  0  0  0  0  0  0  0  0  0  0  0
    0.3943    1.2135    0.0000 C   0  0  0  0  0  0  0  0  0  0  0  0
   -1.0323    0.7500    0.0000 C   0  0  0  0  0  0  0  0  0  0  0  0
   -1.0323   -0.7500    0.0000 C   0  0  0  0  0  0  0  0  0  0  0  0
    0.3943   -1.2135    0.0000 C   0  0  0  0  0  0  0  0  0  0  0  0
  1  2  1  0
  2  3  1  0
  3  4  1  0
  4  5  2  0
  5  6  1  0
  6  7  2  0
  7  8  1  0
  8  4  1  0
M  END
>  <Title>  (985) 
idABJYgen14

$$$$

     RDKit          2D

  8  7  0  0  0  0  0  0  0  0999 V2000
    0.0000    0.0000    0.0000 C   0  0  0  0  0  0  0  0  0  0  0  0
    1.2990    0.7500    0.0000 C   0  0  0  0  0  0  0  0  0  0  0  0
    2.5981   -0.0000    0.0000 C   0  0  0  0  0  0  0  0  0  0  0  0
    3.8971    0.7500    0.0000 C   0  0  0  0  0  0  0  0  0  0  0  0
    2.5981   -1.5000    0.0000 O   0  0  0  0  0  0  0  0  0  0  0  0
    3.8971   -2.2500    0.0000 C   0  0  0  0  0  0  0  0  0  0  0  0
    3.8971   -3.7500    0.0000 C   0  0  0  0  0  0  0  0  0  0  0  0
    5.1962   -1.5000    0.0000 O   0  0  0  0  0  0  0  0  0  0  0  0
  1  2  1  0
  2  3  1  0
  3  4  1  0
  3  5  1  0
  5  6  1  0
  6  7  1  0
  6  8  2  0
M  END
>  <Title>  (986) 
idABJZgen14

$$$$

     RDKit          2D

 35 39  0  0  0  0  0  0  0  0999 V2000
   -3.1476   -2.1380    0.0000 C   0  0  0  0  0  0  0  0  0  0  0  0
   -1.6852   -2.4718    0.0000 C   0  0  0  0  0  0  0  0  0  0  0  0
   -1.3515   -3.9342    0.0000 C   0  0  0  0  0  0  0  0  0  0  0  0
   -0.0000   -4.5850    0.0000 C   0  0  0  0  0  0  0  0  0  0  0  0
    1.3515   -3.9342    0.0000 C   0  0  0  0  0  0  0  0  0  0  0  0
    1.6852   -2.4718    0.0000 C   0  0  0  0  0  0  0  0  0  0  0  0
    3.1476   -2.1380    0.0000 C   0  0  0  0  0  0  0  0  0  0  0  0
    3.5898   -0.7046    0.0000 O   0  0  0  0  0  0  0  0  0  0  0  0
    4.1679   -3.2376    0.0000 N   0  0  0  0  0  0  0  0  0  0  0  0
    5.6303   -2.9038    0.0000 C   0  0  0  0  0  0  0  0  0  0  0  0
    6.2198   -1.5245    0.0000 N   0  0  0  0  0  0  0  0  0  0  0  0
    7.7138   -1.6590    0.0000 N   0  0  0  0  0  0  0  0  0  0  0  0
    8.0476   -3.1214    0.0000 N   0  0  0  0  0  0  0  0  0  0  0  0
    6.7599   -3.8907    0.0000 N   0  0  0  0  0  0  0  0  0  0  0  0
    6.6254   -5.3847    0.0000 N   0  0  0  0  0  0  0  0  0  0  0  0
    7.7550   -6.3716    0.0000 C   0  0  0  0  0  0  0  0  0  0  0  0
    7.1655   -7.7509    0.0000 C   0  0  0  0  0  0  0  0  0  0  0  0
    5.6715   -7.6164    0.0000 C   0  0  0  0  0  0  0  0  0  0  0  0
    4.6846   -8.7460    0.0000 C   0  0  0  0  0  0  0  0  0  0  0  0
    5.1694  -10.1655    0.0000 O   0  0  0  0  0  0  0  0  0  0  0  0
    3.2129   -8.4561    0.0000 N   0  0  0  0  0  0  0  0  0  0  0  0
    2.2260   -9.5857    0.0000 C   0  0  0  0  0  0  0  0  0  0  0  0
    0.7543   -9.2959    0.0000 N   0  0  0  0  0  0  0  0  0  0  0  0
   -0.2326  -10.4255    0.0000 N   0  0  0  0  0  0  0  0  0  0  0  0
    0.2522  -11.8450    0.0000 N   0  0  0  0  0  0  0  0  0  0  0  0
    1.7239  -12.1348    0.0000 N   0  0  0  0  0  0  0  0  0  0  0  0
    2.7108  -11.0052    0.0000 N   0  0  0  0  0  0  0  0  0  0  0  0
    5.3378   -6.1540    0.0000 C   0  0  0  0  0  0  0  0  0  0  0  0
    3.9585   -5.5645    0.0000 O   0  0  0  0  0  0  0  0  0  0  0  0
    0.7500   -1.2990    0.0000 C   0  0  0  0  0  0  0  0  0  0  0  0
    1.5000    0.0000    0.0000 C   0  0  0  0  0  0  0  0  0  0  0  0
    0.7500    1.2990    0.0000 C   0  0  0  0  0  0  0  0  0  0  0  0
   -0.7500    1.2990    0.0000 C   0  0  0  0  0  0  0  0  0  0  0  0
   -1.5000    0.0000    0.0000 C   0  0  0  0  0  0  0  0  0  0  0  0
   -0.7500   -1.2990    0.0000 C   0  0  0  0  0  0  0  0  0  0  0  0
  1  2  1  0
  2  3  1  0
  3  4  2  0
  4  5  1  0
  5  6  1  0
  6  7  1  0
  7  8  2  0
  7  9  1  0
  9 10  1  0
 10 11  2  0
 11 12  1  0
 12 13  2  0
 13 14  1  0
 14 15  1  0
 15 16  1  0
 16 17  1  0
 17 18  1  0
 18 19  1  0
 19 20  2  0
 19 21  1  0
 21 22  1  0
 22 23  2  0
 23 24  1  0
 24 25  2  0
 25 26  1  0
 26 27  2  0
 18 28  1  0
 28 29  2  0
  6 30  1  0
 30 31  2  0
 31 32  1  0
 32 33  2  0
 33 34  1  0
 34 35  2  0
 35  2  1  0
 14 10  1  0
 28 15  1  0
 35 30  1  0
 27 22  1  0
M  END
>  <Title>  (987) 
idABKAgen14

$$$$

     RDKit          2D

 37 41  0  0  0  0  0  0  0  0999 V2000
   -3.1965   -1.7857    0.0000 C   0  0  0  0  0  0  0  0  0  0  0  0
   -1.8107   -2.3597    0.0000 C   0  0  0  0  0  0  0  0  0  0  0  0
   -1.8107   -3.8597    0.0000 C   0  0  0  0  0  0  0  0  0  0  0  0
   -0.7500   -4.9204    0.0000 C   0  0  0  0  0  0  0  0  0  0  0  0
    0.7500   -4.9204    0.0000 C   0  0  0  0  0  0  0  0  0  0  0  0
    1.3240   -6.3062    0.0000 C   0  0  0  0  0  0  0  0  0  0  0  0
    2.8112   -6.5020    0.0000 O   0  0  0  0  0  0  0  0  0  0  0  0
    0.4109   -7.4962    0.0000 N   0  0  0  0  0  0  0  0  0  0  0  0
    0.9849   -8.8820    0.0000 C   0  0  0  0  0  0  0  0  0  0  0  0
    2.4435   -9.2322    0.0000 N   0  0  0  0  0  0  0  0  0  0  0  0
    2.5612  -10.7276    0.0000 N   0  0  0  0  0  0  0  0  0  0  0  0
    1.1753  -11.3016    0.0000 N   0  0  0  0  0  0  0  0  0  0  0  0
    0.2012  -10.1610    0.0000 N   0  0  0  0  0  0  0  0  0  0  0  0
   -1.2942  -10.2787    0.0000 C   0  0  0  0  0  0  0  0  0  0  0  0
   -2.0780  -11.5576    0.0000 C   0  0  0  0  0  0  0  0  0  0  0  0
   -3.5365  -11.2075    0.0000 C   0  0  0  0  0  0  0  0  0  0  0  0
   -3.6542   -9.7121    0.0000 C   0  0  0  0  0  0  0  0  0  0  0  0
   -4.9332   -8.9283    0.0000 C   0  0  0  0  0  0  0  0  0  0  0  0
   -6.2514   -9.6441    0.0000 O   0  0  0  0  0  0  0  0  0  0  0  0
   -4.8939   -7.4289    0.0000 N   0  0  0  0  0  0  0  0  0  0  0  0
   -6.1729   -6.6451    0.0000 C   0  0  0  0  0  0  0  0  0  0  0  0
   -6.1336   -5.1456    0.0000 N   0  0  0  0  0  0  0  0  0  0  0  0
   -7.4126   -4.3619    0.0000 N   0  0  0  0  0  0  0  0  0  0  0  0
   -8.7308   -5.0776    0.0000 N   0  0  0  0  0  0  0  0  0  0  0  0
   -8.7700   -6.5771    0.0000 N   0  0  0  0  0  0  0  0  0  0  0  0
   -7.4911   -7.3608    0.0000 N   0  0  0  0  0  0  0  0  0  0  0  0
   -2.2684   -9.1381    0.0000 C   0  0  0  0  0  0  0  0  0  0  0  0
   -1.9182   -7.6795    0.0000 O   0  0  0  0  0  0  0  0  0  0  0  0
    1.8107   -3.8597    0.0000 C   0  0  0  0  0  0  0  0  0  0  0  0
    3.1965   -4.4337    0.0000 O   0  0  0  0  0  0  0  0  0  0  0  0
    1.8107   -2.3597    0.0000 O   0  0  0  0  0  0  0  0  0  0  0  0
    0.7500   -1.2990    0.0000 C   0  0  0  0  0  0  0  0  0  0  0  0
    1.5000    0.0000    0.0000 C   0  0  0  0  0  0  0  0  0  0  0  0
    0.7500    1.2990    0.0000 C   0  0  0  0  0  0  0  0  0  0  0  0
   -0.7500    1.2990    0.0000 C   0  0  0  0  0  0  0  0  0  0  0  0
   -1.5000    0.0000    0.0000 C   0  0  0  0  0  0  0  0  0  0  0  0
   -0.7500   -1.2990    0.0000 C   0  0  0  0  0  0  0  0  0  0  0  0
  1  2  1  0
  2  3  2  0
  3  4  1  0
  4  5  2  0
  5  6  1  0
  6  7  2  0
  6  8  1  0
  8  9  1  0
  9 10  2  0
 10 11  1  0
 11 12  2  0
 12 13  1  0
 13 14  1  0
 14 15  2  0
 15 16  1  0
 16 17  2  0
 17 18  1  0
 18 19  2  0
 18 20  1  0
 20 21  1  0
 21 22  2  0
 22 23  1  0
 23 24  2  0
 24 25  1  0
 25 26  2  0
 17 27  1  0
 27 28  2  0
  5 29  1  0
 29 30  2  0
 29 31  1  0
 31 32  1  0
 32 33  2  0
 33 34  1  0
 34 35  2  0
 35 36  1  0
 36 37  2  0
 37  2  1  0
 13  9  1  0
 27 14  1  0
 37 32  1  0
 26 21  1  0
M  END
>  <Title>  (988) 
idABKBgen14

$$$$

     RDKit          2D

  8  8  0  0  0  0  0  0  0  0999 V2000
    3.2286   -0.0000    0.0000 C   0  0  0  0  0  0  0  0  0  0  0  0
    1.7286    0.0000    0.0000 C   0  0  0  0  0  0  0  0  0  0  0  0
    1.0777    1.3515    0.0000 C   0  0  0  0  0  0  0  0  0  0  0  0
   -0.3846    1.6852    0.0000 C   0  0  0  0  0  0  0  0  0  0  0  0
   -1.5574    0.7500    0.0000 C   0  0  0  0  0  0  0  0  0  0  0  0
   -1.5574   -0.7500    0.0000 C   0  0  0  0  0  0  0  0  0  0  0  0
   -0.3846   -1.6852    0.0000 C   0  0  0  0  0  0  0  0  0  0  0  0
    1.0777   -1.3515    0.0000 C   0  0  0  0  0  0  0  0  0  0  0  0
  1  2  1  0
  2  3  1  0
  3  4  1  0
  4  5  1  0
  5  6  1  0
  6  7  1  0
  7  8  1  0
  8  2  1  0
M  END
>  <Title>  (989) 
idABKCgen14

$$$$

     RDKit          2D

  5  4  0  0  0  0  0  0  0  0999 V2000
    0.0000    0.0000    0.0000 C   0  0  0  0  0  0  0  0  0  0  0  0
   -0.0000   -1.5000    0.0000 C   0  0  0  0  0  0  0  0  0  0  0  0
   -0.0000   -3.0000    0.0000 C   0  0  0  0  0  0  0  0  0  0  0  0
    1.2990   -3.7500    0.0000 C   0  0  0  0  0  0  0  0  0  0  0  0
    1.2990   -5.2500    0.0000 C   0  0  0  0  0  0  0  0  0  0  0  0
  1  2  3  0
  2  3  1  0
  3  4  1  0
  4  5  1  0
M  END
>  <Title>  (990) 
idABKDgen14

$$$$

     RDKit          2D

  6  6  0  0  0  0  0  0  0  0999 V2000
    2.7760    0.0000    0.0000 O   0  0  0  0  0  0  0  0  0  0  0  0
    1.2760    0.0000    0.0000 C   0  0  0  0  0  0  0  0  0  0  0  0
    0.3943    1.2135    0.0000 C   0  0  0  0  0  0  0  0  0  0  0  0
   -1.0323    0.7500    0.0000 C   0  0  0  0  0  0  0  0  0  0  0  0
   -1.0323   -0.7500    0.0000 C   0  0  0  0  0  0  0  0  0  0  0  0
    0.3943   -1.2135    0.0000 N   0  0  0  0  0  0  0  0  0  0  0  0
  1  2  1  0
  2  3  1  0
  3  4  2  0
  4  5  1  0
  5  6  1  0
  6  2  1  0
M  END
>  <Title>  (991) 
idABKEgen14

$$$$

     RDKit          2D

  8  7  0  0  0  0  0  0  0  0999 V2000
    0.0000    0.0000    0.0000 C   0  0  0  0  0  0  0  0  0  0  0  0
    1.2990    0.7500    0.0000 C   0  0  0  0  0  0  0  0  0  0  0  0
    2.5981   -0.0000    0.0000 C   0  0  0  0  0  0  0  0  0  0  0  0
    1.2990    2.2500    0.0000 C   0  0  0  0  0  0  0  0  0  0  0  0
    1.2990    3.7500    0.0000 C   0  0  0  0  0  0  0  0  0  0  0  0
    1.2990    5.2500    0.0000 C   0  0  0  0  0  0  0  0  0  0  0  0
    1.2990    6.7500    0.0000 C   0  0  0  0  0  0  0  0  0  0  0  0
    1.2990    8.2500    0.0000 O   0  0  0  0  0  0  0  0  0  0  0  0
  1  2  1  0
  2  3  1  0
  2  4  1  0
  4  5  3  0
  5  6  1  0
  6  7  3  0
  7  8  1  0
M  END
>  <Title>  (992) 
idABKFgen14

$$$$

     RDKit          2D

 42 47  0  0  0  0  0  0  0  0999 V2000
   -3.1771   -5.9156    0.0000 C   0  0  0  0  0  0  0  0  0  0  0  0
   -1.9635   -5.0339    0.0000 C   0  0  0  0  0  0  0  0  0  0  0  0
   -0.7500   -5.9156    0.0000 C   0  0  0  0  0  0  0  0  0  0  0  0
    0.7500   -5.9156    0.0000 C   0  0  0  0  0  0  0  0  0  0  0  0
    1.9635   -5.0339    0.0000 C   0  0  0  0  0  0  0  0  0  0  0  0
    2.4271   -3.6073    0.0000 C   0  0  0  0  0  0  0  0  0  0  0  0
    1.9635   -2.1807    0.0000 C   0  0  0  0  0  0  0  0  0  0  0  0
    3.1771   -1.2990    0.0000 C   0  0  0  0  0  0  0  0  0  0  0  0
    3.0203    0.1927    0.0000 O   0  0  0  0  0  0  0  0  0  0  0  0
    4.5474   -1.9091    0.0000 N   0  0  0  0  0  0  0  0  0  0  0  0
    5.7609   -1.0275    0.0000 C   0  0  0  0  0  0  0  0  0  0  0  0
    5.7609    0.4725    0.0000 N   0  0  0  0  0  0  0  0  0  0  0  0
    7.1875    0.9361    0.0000 N   0  0  0  0  0  0  0  0  0  0  0  0
    8.0692   -0.2775    0.0000 N   0  0  0  0  0  0  0  0  0  0  0  0
    7.1875   -1.4910    0.0000 N   0  0  0  0  0  0  0  0  0  0  0  0
    7.6510   -2.9176    0.0000 C   0  0  0  0  0  0  0  0  0  0  0  0
    9.0776   -3.3811    0.0000 C   0  0  0  0  0  0  0  0  0  0  0  0
    9.0776   -4.8811    0.0000 C   0  0  0  0  0  0  0  0  0  0  0  0
    7.6510   -5.3446    0.0000 C   0  0  0  0  0  0  0  0  0  0  0  0
    7.1875   -6.7712    0.0000 C   0  0  0  0  0  0  0  0  0  0  0  0
    8.1912   -7.8859    0.0000 O   0  0  0  0  0  0  0  0  0  0  0  0
    5.7203   -7.0831    0.0000 N   0  0  0  0  0  0  0  0  0  0  0  0
    5.2567   -8.5097    0.0000 C   0  0  0  0  0  0  0  0  0  0  0  0
    3.7895   -8.8215    0.0000 N   0  0  0  0  0  0  0  0  0  0  0  0
    3.3260  -10.2481    0.0000 N   0  0  0  0  0  0  0  0  0  0  0  0
    4.3297  -11.3628    0.0000 N   0  0  0  0  0  0  0  0  0  0  0  0
    5.7969  -11.0510    0.0000 N   0  0  0  0  0  0  0  0  0  0  0  0
    6.2604   -9.6244    0.0000 N   0  0  0  0  0  0  0  0  0  0  0  0
    6.7693   -4.1311    0.0000 C   0  0  0  0  0  0  0  0  0  0  0  0
    5.2693   -4.1311    0.0000 O   0  0  0  0  0  0  0  0  0  0  0  0
    0.7500   -1.2990    0.0000 C   0  0  0  0  0  0  0  0  0  0  0  0
    1.5000    0.0000    0.0000 C   0  0  0  0  0  0  0  0  0  0  0  0
    0.7500    1.2990    0.0000 C   0  0  0  0  0  0  0  0  0  0  0  0
   -0.7500    1.2990    0.0000 C   0  0  0  0  0  0  0  0  0  0  0  0
   -1.5000    0.0000    0.0000 C   0  0  0  0  0  0  0  0  0  0  0  0
   -0.7500   -1.2990    0.0000 C   0  0  0  0  0  0  0  0  0  0  0  0
   -1.9635   -2.1807    0.0000 C   0  0  0  0  0  0  0  0  0  0  0  0
   -2.9672   -1.0660    0.0000 C   0  0  0  0  0  0  0  0  0  0  0  0
   -4.4344   -1.3779    0.0000 C   0  0  0  0  0  0  0  0  0  0  0  0
   -4.8980   -2.8045    0.0000 C   0  0  0  0  0  0  0  0  0  0  0  0
   -3.8943   -3.9192    0.0000 C   0  0  0  0  0  0  0  0  0  0  0  0
   -2.4271   -3.6073    0.0000 C   0  0  0  0  0  0  0  0  0  0  0  0
  1  2  1  0
  2  3  1  0
  3  4  2  0
  4  5  1  0
  5  6  1  0
  6  7  2  0
  7  8  1  0
  8  9  2  0
  8 10  1  0
 10 11  1  0
 11 12  2  0
 12 13  1  0
 13 14  2  0
 14 15  1  0
 15 16  1  0
 16 17  2  0
 17 18  1  0
 18 19  2  0
 19 20  1  0
 20 21  2  0
 20 22  1  0
 22 23  1  0
 23 24  2  0
 24 25  1  0
 25 26  2  0
 26 27  1  0
 27 28  2  0
 19 29  1  0
 29 30  2  0
  7 31  1  0
 31 32  2  0
 32 33  1  0
 33 34  2  0
 34 35  1  0
 35 36  2  0
 36 37  1  0
 37 38  2  0
 38 39  1  0
 39 40  2  0
 40 41  1  0
 41 42  2  0
 42  2  1  0
 15 11  1  0
 29 16  1  0
 36 31  1  0
 42 37  1  0
 28 23  1  0
M  END
>  <Title>  (993) 
idABKGgen14

$$$$

     RDKit          2D

 36 40  0  0  0  0  0  0  0  0999 V2000
   -3.1965   -1.7857    0.0000 C   0  0  0  0  0  0  0  0  0  0  0  0
   -1.8107   -2.3597    0.0000 C   0  0  0  0  0  0  0  0  0  0  0  0
   -1.8107   -3.8597    0.0000 C   0  0  0  0  0  0  0  0  0  0  0  0
   -0.7500   -4.9204    0.0000 C   0  0  0  0  0  0  0  0  0  0  0  0
    0.7500   -4.9204    0.0000 C   0  0  0  0  0  0  0  0  0  0  0  0
    1.8107   -3.8597    0.0000 C   0  0  0  0  0  0  0  0  0  0  0  0
    1.8107   -2.3597    0.0000 C   0  0  0  0  0  0  0  0  0  0  0  0
    3.1965   -1.7857    0.0000 C   0  0  0  0  0  0  0  0  0  0  0  0
    3.3923   -0.2985    0.0000 O   0  0  0  0  0  0  0  0  0  0  0  0
    4.3865   -2.6988    0.0000 N   0  0  0  0  0  0  0  0  0  0  0  0
    5.7723   -2.1248    0.0000 C   0  0  0  0  0  0  0  0  0  0  0  0
    6.1225   -0.6662    0.0000 N   0  0  0  0  0  0  0  0  0  0  0  0
    7.6179   -0.5485    0.0000 N   0  0  0  0  0  0  0  0  0  0  0  0
    8.1919   -1.9344    0.0000 N   0  0  0  0  0  0  0  0  0  0  0  0
    7.0513   -2.9085    0.0000 N   0  0  0  0  0  0  0  0  0  0  0  0
    7.1690   -4.4039    0.0000 N   0  0  0  0  0  0  0  0  0  0  0  0
    8.4479   -5.1877    0.0000 C   0  0  0  0  0  0  0  0  0  0  0  0
    8.0978   -6.6462    0.0000 C   0  0  0  0  0  0  0  0  0  0  0  0
    6.6024   -6.7639    0.0000 N   0  0  0  0  0  0  0  0  0  0  0  0
    5.8186   -8.0429    0.0000 C   0  0  0  0  0  0  0  0  0  0  0  0
    6.5344   -9.3611    0.0000 O   0  0  0  0  0  0  0  0  0  0  0  0
    4.3192   -8.0036    0.0000 N   0  0  0  0  0  0  0  0  0  0  0  0
    3.5354   -9.2826    0.0000 C   0  0  0  0  0  0  0  0  0  0  0  0
    2.0359   -9.2433    0.0000 N   0  0  0  0  0  0  0  0  0  0  0  0
    1.2522  -10.5223    0.0000 N   0  0  0  0  0  0  0  0  0  0  0  0
    1.9679  -11.8405    0.0000 N   0  0  0  0  0  0  0  0  0  0  0  0
    3.4674  -11.8797    0.0000 N   0  0  0  0  0  0  0  0  0  0  0  0
    4.2512  -10.6008    0.0000 N   0  0  0  0  0  0  0  0  0  0  0  0
    6.0284   -5.3781    0.0000 C   0  0  0  0  0  0  0  0  0  0  0  0
    4.5698   -5.0279    0.0000 O   0  0  0  0  0  0  0  0  0  0  0  0
    0.7500   -1.2990    0.0000 C   0  0  0  0  0  0  0  0  0  0  0  0
    1.5000    0.0000    0.0000 C   0  0  0  0  0  0  0  0  0  0  0  0
    0.7500    1.2990    0.0000 C   0  0  0  0  0  0  0  0  0  0  0  0
   -0.7500    1.2990    0.0000 C   0  0  0  0  0  0  0  0  0  0  0  0
   -1.5000    0.0000    0.0000 C   0  0  0  0  0  0  0  0  0  0  0  0
   -0.7500   -1.2990    0.0000 C   0  0  0  0  0  0  0  0  0  0  0  0
  1  2  1  0
  2  3  1  0
  3  4  1  0
  4  5  1  0
  5  6  1  0
  6  7  1  0
  7  8  1  0
  8  9  2  0
  8 10  1  0
 10 11  1  0
 11 12  2  0
 12 13  1  0
 13 14  2  0
 14 15  1  0
 15 16  1  0
 16 17  1  0
 17 18  1  0
 18 19  1  0
 19 20  1  0
 20 21  2  0
 20 22  1  0
 22 23  1  0
 23 24  2  0
 24 25  1  0
 25 26  2  0
 26 27  1  0
 27 28  2  0
 19 29  1  0
 29 30  2  0
  7 31  1  0
 31 32  2  0
 32 33  1  0
 33 34  2  0
 34 35  1  0
 35 36  2  0
 36  2  1  0
 15 11  1  0
 29 16  1  0
 36 31  1  0
 28 23  1  0
M  END
>  <Title>  (994) 
idABKHgen14

$$$$

     RDKit          2D

  6  5  0  0  0  0  0  0  0  0999 V2000
    0.0000    0.0000    0.0000 C   0  0  0  0  0  0  0  0  0  0  0  0
    1.2990    0.7500    0.0000 C   0  0  0  0  0  0  0  0  0  0  0  0
    2.5981   -0.0000    0.0000 C   0  0  0  0  0  0  0  0  0  0  0  0
    2.5981   -1.5000    0.0000 O   0  0  0  0  0  0  0  0  0  0  0  0
    3.8971    0.7500    0.0000 N   0  0  0  0  0  0  0  0  0  0  0  0
    5.1962   -0.0000    0.0000 C   0  0  0  0  0  0  0  0  0  0  0  0
  1  2  1  0
  2  3  1  0
  3  4  1  0
  3  5  1  0
  5  6  1  0
M  END
>  <Title>  (995) 
idABKIgen14

$$$$

     RDKit          2D

 26 28  0  0  0  0  0  0  0  0999 V2000
    8.2500   -1.2990    0.0000 C   0  0  0  0  0  0  0  0  0  0  0  0
    6.7500   -1.2990    0.0000 C   0  0  0  0  0  0  0  0  0  0  0  0
    6.0000    0.0000    0.0000 C   0  0  0  0  0  0  0  0  0  0  0  0
    4.5000    0.0000    0.0000 C   0  0  0  0  0  0  0  0  0  0  0  0
    3.0000    0.0000    0.0000 C   0  0  0  0  0  0  0  0  0  0  0  0
    1.5000    0.0000    0.0000 C   0  0  0  0  0  0  0  0  0  0  0  0
    0.7500   -1.2990    0.0000 C   0  0  0  0  0  0  0  0  0  0  0  0
   -0.7500   -1.2990    0.0000 C   0  0  0  0  0  0  0  0  0  0  0  0
   -1.5000    0.0000    0.0000 C   0  0  0  0  0  0  0  0  0  0  0  0
   -3.0000    0.0000    0.0000 C   0  0  0  0  0  0  0  0  0  0  0  0
   -3.7500   -1.2990    0.0000 O   0  0  0  0  0  0  0  0  0  0  0  0
   -3.7500    1.2990    0.0000 N   0  0  0  0  0  0  0  0  0  0  0  0
   -5.2500    1.2990    0.0000 C   0  0  0  0  0  0  0  0  0  0  0  0
   -6.1317    0.0855    0.0000 N   0  0  0  0  0  0  0  0  0  0  0  0
   -7.5583    0.5490    0.0000 N   0  0  0  0  0  0  0  0  0  0  0  0
   -7.5583    2.0490    0.0000 N   0  0  0  0  0  0  0  0  0  0  0  0
   -6.1317    2.5126    0.0000 N   0  0  0  0  0  0  0  0  0  0  0  0
   -5.6682    3.9391    0.0000 C   0  0  0  0  0  0  0  0  0  0  0  0
   -4.2009    4.2510    0.0000 C   0  0  0  0  0  0  0  0  0  0  0  0
   -3.7374    5.6776    0.0000 C   0  0  0  0  0  0  0  0  0  0  0  0
   -4.7411    6.7923    0.0000 C   0  0  0  0  0  0  0  0  0  0  0  0
   -4.2776    8.2189    0.0000 O   0  0  0  0  0  0  0  0  0  0  0  0
   -6.2083    6.4805    0.0000 C   0  0  0  0  0  0  0  0  0  0  0  0
   -6.6718    5.0539    0.0000 C   0  0  0  0  0  0  0  0  0  0  0  0
   -0.7500    1.2990    0.0000 C   0  0  0  0  0  0  0  0  0  0  0  0
    0.7500    1.2990    0.0000 C   0  0  0  0  0  0  0  0  0  0  0  0
  1  2  1  0
  2  3  2  3
  3  4  1  0
  4  5  3  0
  5  6  1  0
  6  7  2  0
  7  8  1  0
  8  9  2  0
  9 10  1  0
 10 11  2  0
 10 12  1  0
 12 13  1  0
 13 14  2  0
 14 15  1  0
 15 16  2  0
 16 17  1  0
 17 18  1  0
 18 19  2  0
 19 20  1  0
 20 21  2  0
 21 22  1  0
 21 23  1  0
 23 24  2  0
  9 25  1  0
 25 26  2  0
 26  6  1  0
 17 13  1  0
 24 18  1  0
M  END
>  <Title>  (996) 
idABKJgen14

$$$$

     RDKit          2D

 11 11  0  0  0  0  0  0  0  0999 V2000
    7.5000   -2.5981    0.0000 C   0  0  0  0  0  0  0  0  0  0  0  0
    6.0000   -2.5981    0.0000 C   0  0  0  0  0  0  0  0  0  0  0  0
    5.2500   -1.2990    0.0000 C   0  0  0  0  0  0  0  0  0  0  0  0
    3.7500   -1.2990    0.0000 C   0  0  0  0  0  0  0  0  0  0  0  0
    3.0000    0.0000    0.0000 C   0  0  0  0  0  0  0  0  0  0  0  0
    1.5000    0.0000    0.0000 C   0  0  0  0  0  0  0  0  0  0  0  0
    0.7500   -1.2990    0.0000 C   0  0  0  0  0  0  0  0  0  0  0  0
   -0.7500   -1.2990    0.0000 C   0  0  0  0  0  0  0  0  0  0  0  0
   -1.5000    0.0000    0.0000 C   0  0  0  0  0  0  0  0  0  0  0  0
   -0.7500    1.2990    0.0000 C   0  0  0  0  0  0  0  0  0  0  0  0
    0.7500    1.2990    0.0000 C   0  0  0  0  0  0  0  0  0  0  0  0
  1  2  2  0
  2  3  1  0
  3  4  1  0
  4  5  2  3
  5  6  1  0
  6  7  2  0
  7  8  1  0
  8  9  1  0
  9 10  1  0
 10 11  2  0
 11  6  1  0
M  END
>  <Title>  (997) 
idABKKgen14

$$$$

     RDKit          2D

  7  7  0  0  0  0  0  0  0  0999 V2000
    3.0000    0.0000    0.0000 O   0  0  0  0  0  0  0  0  0  0  0  0
    1.5000    0.0000    0.0000 C   0  0  0  0  0  0  0  0  0  0  0  0
    0.7500   -1.2990    0.0000 C   0  0  0  0  0  0  0  0  0  0  0  0
   -0.7500   -1.2990    0.0000 C   0  0  0  0  0  0  0  0  0  0  0  0
   -1.5000    0.0000    0.0000 C   0  0  0  0  0  0  0  0  0  0  0  0
   -0.7500    1.2990    0.0000 C   0  0  0  0  0  0  0  0  0  0  0  0
    0.7500    1.2990    0.0000 C   0  0  0  0  0  0  0  0  0  0  0  0
  1  2  1  0
  2  3  2  0
  3  4  1  0
  4  5  2  0
  5  6  1  0
  6  7  2  0
  7  2  1  0
M  END
>  <Title>  (998) 
idABKLgen14

$$$$

     RDKit          2D

 14 13  0  0  0  0  0  0  0  0999 V2000
    0.0000    0.0000    0.0000 C   0  0  0  0  0  0  0  0  0  0  0  0
   -0.0000   -1.5000    0.0000 C   0  0  0  0  0  0  0  0  0  0  0  0
   -0.0000   -3.0000    0.0000 C   0  0  0  0  0  0  0  0  0  0  0  0
   -0.0000   -4.5000    0.0000 C   0  0  0  0  0  0  0  0  0  0  0  0
   -0.0000   -6.0000    0.0000 C   0  0  0  0  0  0  0  0  0  0  0  0
   -0.0000   -7.5000    0.0000 C   0  0  0  0  0  0  0  0  0  0  0  0
   -0.0000   -9.0000    0.0000 C   0  0  0  0  0  0  0  0  0  0  0  0
   -0.0000  -10.5000    0.0000 C   0  0  0  0  0  0  0  0  0  0  0  0
   -0.0000  -12.0000    0.0000 C   0  0  0  0  0  0  0  0  0  0  0  0
   -0.0000  -13.5000    0.0000 C   0  0  0  0  0  0  0  0  0  0  0  0
   -0.0000  -15.0000    0.0000 C   0  0  0  0  0  0  0  0  0  0  0  0
   -0.0000  -16.5000    0.0000 C   0  0  0  0  0  0  0  0  0  0  0  0
   -0.0000  -18.0000    0.0000 C   0  0  0  0  0  0  0  0  0  0  0  0
   -0.0000  -19.5000    0.0000 C   0  0  0  0  0  0  0  0  0  0  0  0
  1  2  3  0
  2  3  1  0
  3  4  3  0
  4  5  1  0
  5  6  3  0
  6  7  1  0
  7  8  3  0
  8  9  1  0
  9 10  3  0
 10 11  1  0
 11 12  3  0
 12 13  1  0
 13 14  3  0
M  END
>  <Title>  (999) 
idABKMgen14

$$$$

     RDKit          2D

  8  8  0  0  0  0  0  0  0  0999 V2000
    4.5000    0.0000    0.0000 C   0  0  0  0  0  0  0  0  0  0  0  0
    3.0000    0.0000    0.0000 C   0  0  0  0  0  0  0  0  0  0  0  0
    1.5000    0.0000    0.0000 C   0  0  0  0  0  0  0  0  0  0  0  0
    0.7500   -1.2990    0.0000 C   0  0  0  0  0  0  0  0  0  0  0  0
   -0.7500   -1.2990    0.0000 C   0  0  0  0  0  0  0  0  0  0  0  0
   -1.5000    0.0000    0.0000 C   0  0  0  0  0  0  0  0  0  0  0  0
   -0.7500    1.2990    0.0000 C   0  0  0  0  0  0  0  0  0  0  0  0
    0.7500    1.2990    0.0000 C   0  0  0  0  0  0  0  0  0  0  0  0
  1  2  3  0
  2  3  1  0
  3  4  2  0
  4  5  1  0
  5  6  2  0
  6  7  1  0
  7  8  2  0
  8  3  1  0
M  END
>  <Title>  (1000) 
idABKNgen14

$$$$

     RDKit          2D

 36 40  0  0  0  0  0  0  0  0999 V2000
   -4.1679   -3.2376    0.0000 C   0  0  0  0  0  0  0  0  0  0  0  0
   -3.1476   -2.1380    0.0000 C   0  0  0  0  0  0  0  0  0  0  0  0
   -1.6852   -2.4718    0.0000 C   0  0  0  0  0  0  0  0  0  0  0  0
   -1.3515   -3.9342    0.0000 C   0  0  0  0  0  0  0  0  0  0  0  0
   -0.0000   -4.5850    0.0000 C   0  0  0  0  0  0  0  0  0  0  0  0
    1.3515   -3.9342    0.0000 C   0  0  0  0  0  0  0  0  0  0  0  0
    1.6852   -2.4718    0.0000 C   0  0  0  0  0  0  0  0  0  0  0  0
    3.1476   -2.1380    0.0000 C   0  0  0  0  0  0  0  0  0  0  0  0
    3.5898   -0.7046    0.0000 O   0  0  0  0  0  0  0  0  0  0  0  0
    4.1679   -3.2376    0.0000 N   0  0  0  0  0  0  0  0  0  0  0  0
    5.6303   -2.9038    0.0000 C   0  0  0  0  0  0  0  0  0  0  0  0
    6.2198   -1.5245    0.0000 N   0  0  0  0  0  0  0  0  0  0  0  0
    7.7138   -1.6590    0.0000 N   0  0  0  0  0  0  0  0  0  0  0  0
    8.0476   -3.1214    0.0000 N   0  0  0  0  0  0  0  0  0  0  0  0
    6.7599   -3.8907    0.0000 N   0  0  0  0  0  0  0  0  0  0  0  0
    6.6254   -5.3847    0.0000 N   0  0  0  0  0  0  0  0  0  0  0  0
    7.7550   -6.3716    0.0000 C   0  0  0  0  0  0  0  0  0  0  0  0
    7.1655   -7.7509    0.0000 C   0  0  0  0  0  0  0  0  0  0  0  0
    5.6715   -7.6164    0.0000 N   0  0  0  0  0  0  0  0  0  0  0  0
    4.6846   -8.7460    0.0000 C   0  0  0  0  0  0  0  0  0  0  0  0
    5.1694  -10.1655    0.0000 O   0  0  0  0  0  0  0  0  0  0  0  0
    3.2129   -8.4561    0.0000 N   0  0  0  0  0  0  0  0  0  0  0  0
    2.2260   -9.5857    0.0000 C   0  0  0  0  0  0  0  0  0  0  0  0
    0.7543   -9.2959    0.0000 N   0  0  0  0  0  0  0  0  0  0  0  0
   -0.2326  -10.4255    0.0000 N   0  0  0  0  0  0  0  0  0  0  0  0
    0.2522  -11.8450    0.0000 N   0  0  0  0  0  0  0  0  0  0  0  0
    1.7239  -12.1348    0.0000 N   0  0  0  0  0  0  0  0  0  0  0  0
    2.7108  -11.0052    0.0000 N   0  0  0  0  0  0  0  0  0  0  0  0
    5.3378   -6.1540    0.0000 C   0  0  0  0  0  0  0  0  0  0  0  0
    3.9585   -5.5645    0.0000 O   0  0  0  0  0  0  0  0  0  0  0  0
    0.7500   -1.2990    0.0000 C   0  0  0  0  0  0  0  0  0  0  0  0
    1.5000    0.0000    0.0000 C   0  0  0  0  0  0  0  0  0  0  0  0
    0.7500    1.2990    0.0000 C   0  0  0  0  0  0  0  0  0  0  0  0
   -0.7500    1.2990    0.0000 C   0  0  0  0  0  0  0  0  0  0  0  0
   -1.5000    0.0000    0.0000 C   0  0  0  0  0  0  0  0  0  0  0  0
   -0.7500   -1.2990    0.0000 C   0  0  0  0  0  0  0  0  0  0  0  0
  1  2  1  0
  2  3  1  0
  3  4  1  0
  4  5  2  0
  5  6  1  0
  6  7  1  0
  7  8  1  0
  8  9  2  0
  8 10  1  0
 10 11  1  0
 11 12  2  0
 12 13  1  0
 13 14  2  0
 14 15  1  0
 15 16  1  0
 16 17  1  0
 17 18  1  0
 18 19  1  0
 19 20  1  0
 20 21  2  0
 20 22  1  0
 22 23  1  0
 23 24  2  0
 24 25  1  0
 25 26  2  0
 26 27  1  0
 27 28  2  0
 19 29  1  0
 29 30  2  0
  7 31  1  0
 31 32  2  0
 32 33  1  0
 33 34  2  0
 34 35  1  0
 35 36  2  0
 36  3  1  0
 15 11  1  0
 29 16  1  0
 36 31  1  0
 28 23  1  0
M  END
>  <Title>  (1001) 
idABKOgen14

$$$$

     RDKit          2D

 38 42  0  0  0  0  0  0  0  0999 V2000
   -3.0000   -2.5981    0.0000 C   0  0  0  0  0  0  0  0  0  0  0  0
   -1.5000   -2.5981    0.0000 C   0  0  0  0  0  0  0  0  0  0  0  0
   -0.7500   -3.8971    0.0000 C   0  0  0  0  0  0  0  0  0  0  0  0
    0.7500   -3.8971    0.0000 C   0  0  0  0  0  0  0  0  0  0  0  0
    1.5000   -2.5981    0.0000 C   0  0  0  0  0  0  0  0  0  0  0  0
    3.0000   -2.5981    0.0000 C   0  0  0  0  0  0  0  0  0  0  0  0
    3.7500   -1.2990    0.0000 O   0  0  0  0  0  0  0  0  0  0  0  0
    3.7500   -3.8971    0.0000 N   0  0  0  0  0  0  0  0  0  0  0  0
    5.2500   -3.8971    0.0000 C   0  0  0  0  0  0  0  0  0  0  0  0
    6.1317   -2.6836    0.0000 N   0  0  0  0  0  0  0  0  0  0  0  0
    7.5583   -3.1471    0.0000 N   0  0  0  0  0  0  0  0  0  0  0  0
    7.5583   -4.6471    0.0000 N   0  0  0  0  0  0  0  0  0  0  0  0
    6.1317   -5.1106    0.0000 N   0  0  0  0  0  0  0  0  0  0  0  0
    5.6682   -6.5372    0.0000 C   0  0  0  0  0  0  0  0  0  0  0  0
    6.7523   -7.5738    0.0000 C   0  0  0  0  0  0  0  0  0  0  0  0
    6.6179   -9.0678    0.0000 C   0  0  0  0  0  0  0  0  0  0  0  0
    5.3660   -9.8941    0.0000 C   0  0  0  0  0  0  0  0  0  0  0  0
    5.5674  -11.3806    0.0000 O   0  0  0  0  0  0  0  0  0  0  0  0
    3.9394   -9.4306    0.0000 C   0  0  0  0  0  0  0  0  0  0  0  0
    3.4124   -8.0262    0.0000 C   0  0  0  0  0  0  0  0  0  0  0  0
    1.9184   -7.8918    0.0000 C   0  0  0  0  0  0  0  0  0  0  0  0
    1.0550   -9.1184    0.0000 O   0  0  0  0  0  0  0  0  0  0  0  0
    1.2879   -6.5308    0.0000 N   0  0  0  0  0  0  0  0  0  0  0  0
   -0.2061   -6.3963    0.0000 C   0  0  0  0  0  0  0  0  0  0  0  0
   -0.8366   -5.0353    0.0000 N   0  0  0  0  0  0  0  0  0  0  0  0
   -2.3306   -4.9008    0.0000 N   0  0  0  0  0  0  0  0  0  0  0  0
   -3.1940   -6.1274    0.0000 N   0  0  0  0  0  0  0  0  0  0  0  0
   -2.5635   -7.4884    0.0000 N   0  0  0  0  0  0  0  0  0  0  0  0
   -1.0695   -7.6229    0.0000 N   0  0  0  0  0  0  0  0  0  0  0  0
    4.1817   -6.7386    0.0000 C   0  0  0  0  0  0  0  0  0  0  0  0
    3.3554   -5.4867    0.0000 O   0  0  0  0  0  0  0  0  0  0  0  0
    0.7500   -1.2990    0.0000 C   0  0  0  0  0  0  0  0  0  0  0  0
    1.5000    0.0000    0.0000 C   0  0  0  0  0  0  0  0  0  0  0  0
    0.7500    1.2990    0.0000 C   0  0  0  0  0  0  0  0  0  0  0  0
   -0.7500    1.2990    0.0000 C   0  0  0  0  0  0  0  0  0  0  0  0
   -1.5000    2.5981    0.0000 O   0  0  0  0  0  0  0  0  0  0  0  0
   -1.5000    0.0000    0.0000 C   0  0  0  0  0  0  0  0  0  0  0  0
   -0.7500   -1.2990    0.0000 C   0  0  0  0  0  0  0  0  0  0  0  0
  1  2  1  0
  2  3  2  0
  3  4  1  0
  4  5  2  0
  5  6  1  0
  6  7  2  0
  6  8  1  0
  8  9  1  0
  9 10  2  0
 10 11  1  0
 11 12  2  0
 12 13  1  0
 13 14  1  0
 14 15  2  0
 15 16  1  0
 16 17  2  0
 17 18  1  0
 17 19  1  0
 19 20  2  0
 20 21  1  0
 21 22  2  0
 21 23  1  0
 23 24  1  0
 24 25  2  0
 25 26  1  0
 26 27  2  0
 27 28  1  0
 28 29  2  0
 20 30  1  0
 30 31  2  0
  5 32  1  0
 32 33  2  0
 33 34  1  0
 34 35  2  0
 35 36  1  0
 35 37  1  0
 37 38  2  0
 38  2  1  0
 13  9  1  0
 30 14  1  0
 38 32  1  0
 29 24  1  0
M  END
>  <Title>  (1002) 
idABKPgen14

$$$$

     RDKit          2D

 12 12  0  0  0  0  0  0  0  0999 V2000
    7.5000   -2.5981    0.0000 C   0  0  0  0  0  0  0  0  0  0  0  0
    6.0000   -2.5981    0.0000 C   0  0  0  0  0  0  0  0  0  0  0  0
    5.2500   -1.2990    0.0000 C   0  0  0  0  0  0  0  0  0  0  0  0
    3.7500   -1.2990    0.0000 C   0  0  0  0  0  0  0  0  0  0  0  0
    3.0000   -2.5981    0.0000 O   0  0  0  0  0  0  0  0  0  0  0  0
    3.0000    0.0000    0.0000 N   0  0  0  0  0  0  0  0  0  0  0  0
    1.5000    0.0000    0.0000 C   0  0  0  0  0  0  0  0  0  0  0  0
    0.7500   -1.2990    0.0000 C   0  0  0  0  0  0  0  0  0  0  0  0
   -0.7500   -1.2990    0.0000 C   0  0  0  0  0  0  0  0  0  0  0  0
   -1.5000    0.0000    0.0000 C   0  0  0  0  0  0  0  0  0  0  0  0
   -0.7500    1.2990    0.0000 C   0  0  0  0  0  0  0  0  0  0  0  0
    0.7500    1.2990    0.0000 N   0  0  0  0  0  0  0  0  0  0  0  0
  1  2  1  0
  2  3  1  0
  3  4  1  0
  4  5  2  0
  4  6  1  0
  6  7  1  0
  7  8  2  0
  8  9  1  0
  9 10  2  0
 10 11  1  0
 11 12  2  0
 12  7  1  0
M  END
>  <Title>  (1003) 
idABKQgen14

$$$$

     RDKit          2D

 13 13  0  0  0  0  0  0  0  0999 V2000
    7.5000   -2.5981    0.0000 C   0  0  0  0  0  0  0  0  0  0  0  0
    6.0000   -2.5981    0.0000 C   0  0  0  0  0  0  0  0  0  0  0  0
    5.2500   -3.8971    0.0000 C   0  0  0  0  0  0  0  0  0  0  0  0
    5.2500   -1.2990    0.0000 N   0  0  0  0  0  0  0  0  0  0  0  0
    3.7500   -1.2990    0.0000 C   0  0  0  0  0  0  0  0  0  0  0  0
    3.0000   -2.5981    0.0000 O   0  0  0  0  0  0  0  0  0  0  0  0
    3.0000    0.0000    0.0000 C   0  0  0  0  0  0  0  0  0  0  0  0
    1.5000    0.0000    0.0000 C   0  0  0  0  0  0  0  0  0  0  0  0
    0.7500   -1.2990    0.0000 C   0  0  0  0  0  0  0  0  0  0  0  0
   -0.7500   -1.2990    0.0000 C   0  0  0  0  0  0  0  0  0  0  0  0
   -1.5000    0.0000    0.0000 C   0  0  0  0  0  0  0  0  0  0  0  0
   -0.7500    1.2990    0.0000 C   0  0  0  0  0  0  0  0  0  0  0  0
    0.7500    1.2990    0.0000 C   0  0  0  0  0  0  0  0  0  0  0  0
  1  2  1  0
  2  3  1  0
  2  4  1  0
  4  5  1  0
  5  6  2  0
  5  7  1  0
  7  8  1  0
  8  9  2  0
  9 10  1  0
 10 11  2  0
 11 12  1  0
 12 13  2  0
 13  8  1  0
M  END
>  <Title>  (1004) 
idABKRgen14

$$$$

     RDKit          2D

 34 38  0  0  0  0  0  0  0  0999 V2000
   -3.0000   -2.5981    0.0000 C   0  0  0  0  0  0  0  0  0  0  0  0
   -1.5000   -2.5981    0.0000 C   0  0  0  0  0  0  0  0  0  0  0  0
   -0.7500   -3.8971    0.0000 C   0  0  0  0  0  0  0  0  0  0  0  0
    0.7500   -3.8971    0.0000 C   0  0  0  0  0  0  0  0  0  0  0  0
    1.5000   -2.5981    0.0000 C   0  0  0  0  0  0  0  0  0  0  0  0
    3.0000   -2.5981    0.0000 C   0  0  0  0  0  0  0  0  0  0  0  0
    3.7500   -1.2990    0.0000 O   0  0  0  0  0  0  0  0  0  0  0  0
    3.7500   -3.8971    0.0000 N   0  0  0  0  0  0  0  0  0  0  0  0
    5.2500   -3.8971    0.0000 C   0  0  0  0  0  0  0  0  0  0  0  0
    6.1317   -2.6836    0.0000 N   0  0  0  0  0  0  0  0  0  0  0  0
    7.5583   -3.1471    0.0000 N   0  0  0  0  0  0  0  0  0  0  0  0
    7.5583   -4.6471    0.0000 N   0  0  0  0  0  0  0  0  0  0  0  0
    6.1317   -5.1106    0.0000 N   0  0  0  0  0  0  0  0  0  0  0  0
    5.6682   -6.5372    0.0000 N   0  0  0  0  0  0  0  0  0  0  0  0
    6.5498   -7.7508    0.0000 C   0  0  0  0  0  0  0  0  0  0  0  0
    5.6682   -8.9643    0.0000 C   0  0  0  0  0  0  0  0  0  0  0  0
    4.2416   -8.5008    0.0000 N   0  0  0  0  0  0  0  0  0  0  0  0
    3.0280   -9.3824    0.0000 C   0  0  0  0  0  0  0  0  0  0  0  0
    3.1848  -10.8742    0.0000 O   0  0  0  0  0  0  0  0  0  0  0  0
    1.6577   -8.7723    0.0000 N   0  0  0  0  0  0  0  0  0  0  0  0
    0.4442   -9.6540    0.0000 C   0  0  0  0  0  0  0  0  0  0  0  0
   -0.9261   -9.0439    0.0000 N   0  0  0  0  0  0  0  0  0  0  0  0
   -2.1396   -9.9256    0.0000 N   0  0  0  0  0  0  0  0  0  0  0  0
   -1.9829  -11.4174    0.0000 N   0  0  0  0  0  0  0  0  0  0  0  0
   -0.6125  -12.0275    0.0000 N   0  0  0  0  0  0  0  0  0  0  0  0
    0.6010  -11.1458    0.0000 N   0  0  0  0  0  0  0  0  0  0  0  0
    4.2416   -7.0008    0.0000 C   0  0  0  0  0  0  0  0  0  0  0  0
    3.0280   -6.1191    0.0000 O   0  0  0  0  0  0  0  0  0  0  0  0
    0.7500   -1.2990    0.0000 C   0  0  0  0  0  0  0  0  0  0  0  0
    1.5000    0.0000    0.0000 C   0  0  0  0  0  0  0  0  0  0  0  0
    0.7500    1.2990    0.0000 C   0  0  0  0  0  0  0  0  0  0  0  0
   -0.7500    1.2990    0.0000 C   0  0  0  0  0  0  0  0  0  0  0  0
   -1.5000    0.0000    0.0000 C   0  0  0  0  0  0  0  0  0  0  0  0
   -0.7500   -1.2990    0.0000 C   0  0  0  0  0  0  0  0  0  0  0  0
  1  2  1  0
  2  3  1  0
  3  4  2  0
  4  5  1  0
  5  6  1  0
  6  7  2  0
  6  8  1  0
  8  9  1  0
  9 10  2  0
 10 11  1  0
 11 12  2  0
 12 13  1  0
 13 14  1  0
 14 15  1  0
 15 16  1  0
 16 17  1  0
 17 18  1  0
 18 19  2  0
 18 20  1  0
 20 21  1  0
 21 22  2  0
 22 23  1  0
 23 24  2  0
 24 25  1  0
 25 26  2  0
 17 27  1  0
 27 28  2  0
  5 29  1  0
 29 30  2  0
 30 31  1  0
 31 32  2  0
 32 33  1  0
 33 34  2  0
 34  2  1  0
 13  9  1  0
 27 14  1  0
 34 29  1  0
 26 21  1  0
M  END
>  <Title>  (1005) 
idABKSgen14

$$$$

     RDKit          2D

  9  8  0  0  0  0  0  0  0  0999 V2000
    0.0000    0.0000    0.0000 C   0  0  0  0  0  0  0  0  0  0  0  0
    1.2990    0.7500    0.0000 C   0  0  0  0  0  0  0  0  0  0  0  0
    2.5981   -0.0000    0.0000 C   0  0  0  0  0  0  0  0  0  0  0  0
    3.8971    0.7500    0.0000 C   0  0  0  0  0  0  0  0  0  0  0  0
    5.1962   -0.0000    0.0000 C   0  0  0  0  0  0  0  0  0  0  0  0
    6.4952    0.7500    0.0000 C   0  0  0  0  0  0  0  0  0  0  0  0
    7.7942   -0.0000    0.0000 C   0  0  0  0  0  0  0  0  0  0  0  0
    6.4952    2.2500    0.0000 N   0  0  0  0  0  0  0  0  0  0  0  0
    7.7942    3.0000    0.0000 C   0  0  0  0  0  0  0  0  0  0  0  0
  1  2  1  0
  2  3  1  0
  3  4  1  0
  4  5  1  0
  5  6  1  0
  6  7  1  0
  6  8  1  0
  8  9  1  0
M  END
>  <Title>  (1006) 
idABKTgen14

$$$$

     RDKit          2D

  6  5  0  0  0  0  0  0  0  0999 V2000
    0.0000    0.0000    0.0000 C   0  0  0  0  0  0  0  0  0  0  0  0
    1.2990    0.7500    0.0000 C   0  0  0  0  0  0  0  0  0  0  0  0
    2.5981   -0.0000    0.0000 C   0  0  0  0  0  0  0  0  0  0  0  0
    3.8971    0.7500    0.0000 C   0  0  0  0  0  0  0  0  0  0  0  0
    5.1962   -0.0000    0.0000 C   0  0  0  0  0  0  0  0  0  0  0  0
    6.4952   -0.7500    0.0000 N   0  0  0  0  0  0  0  0  0  0  0  0
  1  2  2  0
  2  3  1  0
  3  4  1  0
  4  5  1  0
  5  6  3  0
M  END
>  <Title>  (1007) 
idABKUgen14

$$$$

     RDKit          2D

  9  8  0  0  0  0  0  0  0  0999 V2000
    0.0000    0.0000    0.0000 C   0  0  0  0  0  0  0  0  0  0  0  0
    1.2990    0.7500    0.0000 C   0  0  0  0  0  0  0  0  0  0  0  0
    2.5981   -0.0000    0.0000 C   0  0  0  0  0  0  0  0  0  0  0  0
    3.8971    0.7500    0.0000 N   0  0  0  0  0  0  0  0  0  0  0  0
    5.1962   -0.0000    0.0000 C   0  0  0  0  0  0  0  0  0  0  0  0
    6.4952    0.7500    0.0000 C   0  0  0  0  0  0  0  0  0  0  0  0
    5.1962   -1.5000    0.0000 C   0  0  0  0  0  0  0  0  0  0  0  0
    2.5981   -1.5000    0.0000 O   0  0  0  0  0  0  0  0  0  0  0  0
    3.8971   -2.2500    0.0000 C   0  0  0  0  0  0  0  0  0  0  0  0
  1  2  1  0
  2  3  1  0
  3  4  1  0
  4  5  1  0
  5  6  1  0
  5  7  1  0
  3  8  1  0
  8  9  1  0
M  END
>  <Title>  (1008) 
idABKVgen14

$$$$

     RDKit          2D

 42 47  0  0  0  0  0  0  0  0999 V2000
   -2.3737   -6.1885    0.0000 C   0  0  0  0  0  0  0  0  0  0  0  0
   -1.4095   -5.0395    0.0000 C   0  0  0  0  0  0  0  0  0  0  0  0
   -0.0000   -5.5525    0.0000 C   0  0  0  0  0  0  0  0  0  0  0  0
    1.4095   -5.0395    0.0000 C   0  0  0  0  0  0  0  0  0  0  0  0
    2.1595   -3.7404    0.0000 C   0  0  0  0  0  0  0  0  0  0  0  0
    1.8991   -2.2632    0.0000 C   0  0  0  0  0  0  0  0  0  0  0  0
    3.1981   -1.5132    0.0000 C   0  0  0  0  0  0  0  0  0  0  0  0
    3.1981   -0.0132    0.0000 O   0  0  0  0  0  0  0  0  0  0  0  0
    4.4971   -2.2632    0.0000 N   0  0  0  0  0  0  0  0  0  0  0  0
    5.7962   -1.5132    0.0000 C   0  0  0  0  0  0  0  0  0  0  0  0
    5.9530   -0.0214    0.0000 N   0  0  0  0  0  0  0  0  0  0  0  0
    7.4202    0.2904    0.0000 N   0  0  0  0  0  0  0  0  0  0  0  0
    8.1702   -1.0086    0.0000 N   0  0  0  0  0  0  0  0  0  0  0  0
    7.1665   -2.1233    0.0000 N   0  0  0  0  0  0  0  0  0  0  0  0
    7.4784   -3.5905    0.0000 N   0  0  0  0  0  0  0  0  0  0  0  0
    8.8487   -4.2007    0.0000 C   0  0  0  0  0  0  0  0  0  0  0  0
    8.6919   -5.6924    0.0000 C   0  0  0  0  0  0  0  0  0  0  0  0
    7.2247   -6.0043    0.0000 N   0  0  0  0  0  0  0  0  0  0  0  0
    6.6146   -7.3746    0.0000 C   0  0  0  0  0  0  0  0  0  0  0  0
    7.4962   -8.5881    0.0000 O   0  0  0  0  0  0  0  0  0  0  0  0
    5.1228   -7.5314    0.0000 N   0  0  0  0  0  0  0  0  0  0  0  0
    4.5127   -8.9017    0.0000 C   0  0  0  0  0  0  0  0  0  0  0  0
    3.0209   -9.0585    0.0000 N   0  0  0  0  0  0  0  0  0  0  0  0
    2.4108  -10.4288    0.0000 N   0  0  0  0  0  0  0  0  0  0  0  0
    3.2925  -11.6424    0.0000 N   0  0  0  0  0  0  0  0  0  0  0  0
    4.7843  -11.4856    0.0000 N   0  0  0  0  0  0  0  0  0  0  0  0
    5.3944  -10.1153    0.0000 N   0  0  0  0  0  0  0  0  0  0  0  0
    6.4747   -4.7053    0.0000 C   0  0  0  0  0  0  0  0  0  0  0  0
    4.9829   -4.5485    0.0000 O   0  0  0  0  0  0  0  0  0  0  0  0
    0.7500   -1.2990    0.0000 C   0  0  0  0  0  0  0  0  0  0  0  0
    1.5000    0.0000    0.0000 C   0  0  0  0  0  0  0  0  0  0  0  0
    0.7500    1.2990    0.0000 C   0  0  0  0  0  0  0  0  0  0  0  0
   -0.7500    1.2990    0.0000 C   0  0  0  0  0  0  0  0  0  0  0  0
   -1.5000    0.0000    0.0000 C   0  0  0  0  0  0  0  0  0  0  0  0
   -0.7500   -1.2990    0.0000 C   0  0  0  0  0  0  0  0  0  0  0  0
   -1.8991   -2.2632    0.0000 C   0  0  0  0  0  0  0  0  0  0  0  0
   -3.0481   -1.2990    0.0000 C   0  0  0  0  0  0  0  0  0  0  0  0
   -4.4577   -1.8121    0.0000 C   0  0  0  0  0  0  0  0  0  0  0  0
   -4.7181   -3.2893    0.0000 C   0  0  0  0  0  0  0  0  0  0  0  0
   -6.1277   -3.8023    0.0000 O   0  0  0  0  0  0  0  0  0  0  0  0
   -3.5691   -4.2535    0.0000 C   0  0  0  0  0  0  0  0  0  0  0  0
   -2.1595   -3.7404    0.0000 C   0  0  0  0  0  0  0  0  0  0  0  0
  1  2  1  0
  2  3  1  0
  3  4  1  0
  4  5  1  0
  5  6  1  0
  6  7  1  0
  7  8  2  0
  7  9  1  0
  9 10  1  0
 10 11  2  0
 11 12  1  0
 12 13  2  0
 13 14  1  0
 14 15  1  0
 15 16  1  0
 16 17  1  0
 17 18  1  0
 18 19  1  0
 19 20  2  0
 19 21  1  0
 21 22  1  0
 22 23  2  0
 23 24  1  0
 24 25  2  0
 25 26  1  0
 26 27  2  0
 18 28  1  0
 28 29  2  0
  6 30  1  0
 30 31  2  0
 31 32  1  0
 32 33  2  0
 33 34  1  0
 34 35  2  0
 35 36  1  0
 36 37  2  0
 37 38  1  0
 38 39  2  0
 39 40  1  0
 39 41  1  0
 41 42  2  0
 42  2  1  0
 14 10  1  0
 28 15  1  0
 35 30  1  0
 42 36  1  0
 27 22  1  0
M  END
>  <Title>  (1009) 
idABKWgen14

$$$$

     RDKit          2D

 36 40  0  0  0  0  0  0  0  0999 V2000
   -4.3202   -4.5321    0.0000 C   0  0  0  0  0  0  0  0  0  0  0  0
   -3.2595   -3.4715    0.0000 C   0  0  0  0  0  0  0  0  0  0  0  0
   -3.6478   -2.0226    0.0000 O   0  0  0  0  0  0  0  0  0  0  0  0
   -1.8107   -3.8597    0.0000 N   0  0  0  0  0  0  0  0  0  0  0  0
   -0.7500   -2.7990    0.0000 C   0  0  0  0  0  0  0  0  0  0  0  0
    0.7500   -2.7990    0.0000 C   0  0  0  0  0  0  0  0  0  0  0  0
    1.8107   -3.8597    0.0000 C   0  0  0  0  0  0  0  0  0  0  0  0
    3.2595   -3.4715    0.0000 O   0  0  0  0  0  0  0  0  0  0  0  0
    1.4224   -5.3086    0.0000 N   0  0  0  0  0  0  0  0  0  0  0  0
    2.4831   -6.3692    0.0000 C   0  0  0  0  0  0  0  0  0  0  0  0
    3.9646   -6.1346    0.0000 N   0  0  0  0  0  0  0  0  0  0  0  0
    4.6456   -7.4711    0.0000 N   0  0  0  0  0  0  0  0  0  0  0  0
    3.5849   -8.5318    0.0000 N   0  0  0  0  0  0  0  0  0  0  0  0
    2.2484   -7.8508    0.0000 N   0  0  0  0  0  0  0  0  0  0  0  0
    0.9119   -8.5318    0.0000 C   0  0  0  0  0  0  0  0  0  0  0  0
    0.6773  -10.0133    0.0000 C   0  0  0  0  0  0  0  0  0  0  0  0
   -0.8043  -10.2479    0.0000 C   0  0  0  0  0  0  0  0  0  0  0  0
   -1.4852   -8.9114    0.0000 C   0  0  0  0  0  0  0  0  0  0  0  0
   -2.9668   -8.6768    0.0000 O   0  0  0  0  0  0  0  0  0  0  0  0
   -3.5043   -7.2764    0.0000 C   0  0  0  0  0  0  0  0  0  0  0  0
   -2.5603   -6.1107    0.0000 O   0  0  0  0  0  0  0  0  0  0  0  0
   -4.9859   -7.0418    0.0000 N   0  0  0  0  0  0  0  0  0  0  0  0
   -5.9298   -8.2075    0.0000 C   0  0  0  0  0  0  0  0  0  0  0  0
   -7.4114   -7.9728    0.0000 N   0  0  0  0  0  0  0  0  0  0  0  0
   -8.3554   -9.1386    0.0000 N   0  0  0  0  0  0  0  0  0  0  0  0
   -7.8178  -10.5389    0.0000 N   0  0  0  0  0  0  0  0  0  0  0  0
   -6.3363  -10.7736    0.0000 N   0  0  0  0  0  0  0  0  0  0  0  0
   -5.3923   -9.6079    0.0000 N   0  0  0  0  0  0  0  0  0  0  0  0
   -0.4246   -7.8508    0.0000 C   0  0  0  0  0  0  0  0  0  0  0  0
   -0.6592   -6.3692    0.0000 O   0  0  0  0  0  0  0  0  0  0  0  0
    0.7500   -1.2990    0.0000 C   0  0  0  0  0  0  0  0  0  0  0  0
    1.5000    0.0000    0.0000 C   0  0  0  0  0  0  0  0  0  0  0  0
    0.7500    1.2990    0.0000 C   0  0  0  0  0  0  0  0  0  0  0  0
   -0.7500    1.2990    0.0000 C   0  0  0  0  0  0  0  0  0  0  0  0
   -1.5000    0.0000    0.0000 C   0  0  0  0  0  0  0  0  0  0  0  0
   -0.7500   -1.2990    0.0000 C   0  0  0  0  0  0  0  0  0  0  0  0
  1  2  1  0
  2  3  2  0
  2  4  1  0
  4  5  1  0
  5  6  2  0
  6  7  1  0
  7  8  2  0
  7  9  1  0
  9 10  1  0
 10 11  2  0
 11 12  1  0
 12 13  2  0
 13 14  1  0
 14 15  1  0
 15 16  2  0
 16 17  1  0
 17 18  2  0
 18 19  1  0
 19 20  1  0
 20 21  2  0
 20 22  1  0
 22 23  1  0
 23 24  2  0
 24 25  1  0
 25 26  2  0
 26 27  1  0
 27 28  2  0
 18 29  1  0
 29 30  2  0
  6 31  1  0
 31 32  2  0
 32 33  1  0
 33 34  2  0
 34 35  1  0
 35 36  2  0
 36  5  1  0
 14 10  1  0
 29 15  1  0
 36 31  1  0
 28 23  1  0
M  END
>  <Title>  (1010) 
idABKXgen14

$$$$

     RDKit          2D

  8  7  0  0  0  0  0  0  0  0999 V2000
    0.0000    0.0000    0.0000 C   0  0  0  0  0  0  0  0  0  0  0  0
    1.2990    0.7500    0.0000 C   0  0  0  0  0  0  0  0  0  0  0  0
    2.5981   -0.0000    0.0000 C   0  0  0  0  0  0  0  0  0  0  0  0
    3.8971    0.7500    0.0000 C   0  0  0  0  0  0  0  0  0  0  0  0
    5.1962   -0.0000    0.0000 C   0  0  0  0  0  0  0  0  0  0  0  0
    6.4952    0.7500    0.0000 C   0  0  0  0  0  0  0  0  0  0  0  0
    5.1962   -1.5000    0.0000 N   0  0  0  0  0  0  0  0  0  0  0  0
    6.4952   -2.2500    0.0000 C   0  0  0  0  0  0  0  0  0  0  0  0
  1  2  2  0
  2  3  1  0
  3  4  1  0
  4  5  1  0
  5  6  1  0
  5  7  1  0
  7  8  1  0
M  END
>  <Title>  (1011) 
idABKYgen14

$$$$

     RDKit          2D

 10 11  0  0  0  0  0  0  0  0999 V2000
   -2.2500   -2.7990    0.0000 C   0  0  0  0  0  0  0  0  0  0  0  0
   -0.7500   -2.7990    0.0000 C   0  0  0  0  0  0  0  0  0  0  0  0
   -0.7500   -4.2990    0.0000 C   0  0  0  0  0  0  0  0  0  0  0  0
    0.7500   -2.7990    0.0000 N   0  0  0  0  0  0  0  0  0  0  0  0
    0.7500   -1.2990    0.0000 C   0  0  0  0  0  0  0  0  0  0  0  0
    1.5000    0.0000    0.0000 C   0  0  0  0  0  0  0  0  0  0  0  0
    0.7500    1.2990    0.0000 C   0  0  0  0  0  0  0  0  0  0  0  0
   -0.7500    1.2990    0.0000 C   0  0  0  0  0  0  0  0  0  0  0  0
   -1.5000    0.0000    0.0000 C   0  0  0  0  0  0  0  0  0  0  0  0
   -0.7500   -1.2990    0.0000 C   0  0  0  0  0  0  0  0  0  0  0  0
  1  2  1  0
  2  3  1  0
  2  4  1  0
  4  5  1  0
  5  6  2  0
  6  7  1  0
  7  8  2  0
  8  9  1  0
  9 10  2  0
 10  2  1  0
 10  5  1  0
M  END
>  <Title>  (1012) 
idABKZgen14

$$$$

     RDKit          2D

 13 13  0  0  0  0  0  0  0  0999 V2000
   13.2760   -0.0000    0.0000 C   0  0  0  0  0  0  0  0  0  0  0  0
   11.7760   -0.0000    0.0000 C   0  0  0  0  0  0  0  0  0  0  0  0
   10.2760   -0.0000    0.0000 C   0  0  0  0  0  0  0  0  0  0  0  0
    8.7760   -0.0000    0.0000 C   0  0  0  0  0  0  0  0  0  0  0  0
    7.2760   -0.0000    0.0000 C   0  0  0  0  0  0  0  0  0  0  0  0
    5.7760   -0.0000    0.0000 C   0  0  0  0  0  0  0  0  0  0  0  0
    4.2760   -0.0000    0.0000 C   0  0  0  0  0  0  0  0  0  0  0  0
    2.7760    0.0000    0.0000 C   0  0  0  0  0  0  0  0  0  0  0  0
    1.2760    0.0000    0.0000 C   0  0  0  0  0  0  0  0  0  0  0  0
    0.3943    1.2135    0.0000 C   0  0  0  0  0  0  0  0  0  0  0  0
   -1.0323    0.7500    0.0000 C   0  0  0  0  0  0  0  0  0  0  0  0
   -1.0323   -0.7500    0.0000 C   0  0  0  0  0  0  0  0  0  0  0  0
    0.3943   -1.2135    0.0000 N   0  0  0  0  0  0  0  0  0  0  0  0
  1  2  3  0
  2  3  1  0
  3  4  3  0
  4  5  1  0
  5  6  3  0
  6  7  1  0
  7  8  3  0
  8  9  1  0
  9 10  2  0
 10 11  1  0
 11 12  1  0
 12 13  2  0
 13  9  1  0
M  END
>  <Title>  (1013) 
idABLAgen14

$$$$

     RDKit          2D

 11 11  0  0  0  0  0  0  0  0999 V2000
    4.8107   -1.2990    0.0000 C   0  0  0  0  0  0  0  0  0  0  0  0
    3.3107   -1.2990    0.0000 C   0  0  0  0  0  0  0  0  0  0  0  0
    2.5607   -2.5981    0.0000 O   0  0  0  0  0  0  0  0  0  0  0  0
    2.5607    0.0000    0.0000 N   0  0  0  0  0  0  0  0  0  0  0  0
    1.0607    0.0000    0.0000 C   0  0  0  0  0  0  0  0  0  0  0  0
   -0.0000   -1.0607    0.0000 C   0  0  0  0  0  0  0  0  0  0  0  0
   -0.0000   -2.5607    0.0000 C   0  0  0  0  0  0  0  0  0  0  0  0
   -1.2990   -3.3107    0.0000 C   0  0  0  0  0  0  0  0  0  0  0  0
   -2.5981   -4.0607    0.0000 N   0  0  0  0  0  0  0  0  0  0  0  0
   -1.0607    0.0000    0.0000 C   0  0  0  0  0  0  0  0  0  0  0  0
    0.0000    1.0607    0.0000 C   0  0  0  0  0  0  0  0  0  0  0  0
  1  2  1  0
  2  3  2  0
  2  4  1  0
  4  5  1  0
  5  6  2  0
  6  7  1  0
  7  8  1  0
  8  9  3  0
  6 10  1  0
 10 11  2  0
 11  5  1  0
M  END
>  <Title>  (1014) 
idABLBgen14

$$$$

     RDKit          2D

 10 10  0  0  0  0  0  0  0  0999 V2000
    7.2760   -2.5981    0.0000 C   0  0  0  0  0  0  0  0  0  0  0  0
    5.7760   -2.5981    0.0000 C   0  0  0  0  0  0  0  0  0  0  0  0
    5.0260   -1.2990    0.0000 C   0  0  0  0  0  0  0  0  0  0  0  0
    3.5260   -1.2990    0.0000 N   0  0  0  0  0  0  0  0  0  0  0  0
    2.7760    0.0000    0.0000 C   0  0  0  0  0  0  0  0  0  0  0  0
    1.2760    0.0000    0.0000 C   0  0  0  0  0  0  0  0  0  0  0  0
    0.3943    1.2135    0.0000 C   0  0  0  0  0  0  0  0  0  0  0  0
   -1.0323    0.7500    0.0000 C   0  0  0  0  0  0  0  0  0  0  0  0
   -1.0323   -0.7500    0.0000 C   0  0  0  0  0  0  0  0  0  0  0  0
    0.3943   -1.2135    0.0000 C   0  0  0  0  0  0  0  0  0  0  0  0
  1  2  1  0
  2  3  2  3
  3  4  1  0
  4  5  1  0
  5  6  1  0
  6  7  2  0
  7  8  1  0
  8  9  1  0
  9 10  2  0
 10  6  1  0
M  END
>  <Title>  (1015) 
idABLCgen14

$$$$

     RDKit          2D

 12 13  0  0  0  0  0  0  0  0999 V2000
   -4.3786   -5.1199    0.0000 C   0  0  0  0  0  0  0  0  0  0  0  0
   -2.9520   -4.6564    0.0000 C   0  0  0  0  0  0  0  0  0  0  0  0
   -2.6401   -3.1891    0.0000 C   0  0  0  0  0  0  0  0  0  0  0  0
   -1.2135   -2.7256    0.0000 C   0  0  0  0  0  0  0  0  0  0  0  0
   -0.0000   -3.6073    0.0000 C   0  0  0  0  0  0  0  0  0  0  0  0
    1.2135   -2.7256    0.0000 C   0  0  0  0  0  0  0  0  0  0  0  0
    0.7500   -1.2990    0.0000 C   0  0  0  0  0  0  0  0  0  0  0  0
    1.5000    0.0000    0.0000 C   0  0  0  0  0  0  0  0  0  0  0  0
    0.7500    1.2990    0.0000 C   0  0  0  0  0  0  0  0  0  0  0  0
   -0.7500    1.2990    0.0000 C   0  0  0  0  0  0  0  0  0  0  0  0
   -1.5000    0.0000    0.0000 N   0  0  0  0  0  0  0  0  0  0  0  0
   -0.7500   -1.2990    0.0000 C   0  0  0  0  0  0  0  0  0  0  0  0
  1  2  1  0
  2  3  1  0
  3  4  1  0
  4  5  1  0
  5  6  1  0
  6  7  1  0
  7  8  2  0
  8  9  1  0
  9 10  2  0
 10 11  1  0
 11 12  2  0
 12  4  1  0
 12  7  1  0
M  END
>  <Title>  (1016) 
idABLDgen14

$$$$

     RDKit          2D

  9  9  0  0  0  0  0  0  0  0999 V2000
    5.2500   -1.2990    0.0000 C   0  0  0  0  0  0  0  0  0  0  0  0
    3.7500   -1.2990    0.0000 C   0  0  0  0  0  0  0  0  0  0  0  0
    3.0000    0.0000    0.0000 C   0  0  0  0  0  0  0  0  0  0  0  0
    1.5000    0.0000    0.0000 C   0  0  0  0  0  0  0  0  0  0  0  0
    0.7500   -1.2990    0.0000 C   0  0  0  0  0  0  0  0  0  0  0  0
   -0.7500   -1.2990    0.0000 C   0  0  0  0  0  0  0  0  0  0  0  0
   -1.5000    0.0000    0.0000 C   0  0  0  0  0  0  0  0  0  0  0  0
   -0.7500    1.2990    0.0000 N   0  0  0  0  0  0  0  0  0  0  0  0
    0.7500    1.2990    0.0000 C   0  0  0  0  0  0  0  0  0  0  0  0
  1  2  1  0
  2  3  2  3
  3  4  1  0
  4  5  2  0
  5  6  1  0
  6  7  2  0
  7  8  1  0
  8  9  2  0
  9  4  1  0
M  END
>  <Title>  (1017) 
idABLEgen14

$$$$

     RDKit          2D

  9  8  0  0  0  0  0  0  0  0999 V2000
    0.0000    0.0000    0.0000 C   0  0  0  0  0  0  0  0  0  0  0  0
    1.2990    0.7500    0.0000 C   0  0  0  0  0  0  0  0  0  0  0  0
    2.5981   -0.0000    0.0000 C   0  0  0  0  0  0  0  0  0  0  0  0
    3.8971    0.7500    0.0000 C   0  0  0  0  0  0  0  0  0  0  0  0
    5.1962   -0.0000    0.0000 C   0  0  0  0  0  0  0  0  0  0  0  0
    3.8971    2.2500    0.0000 C   0  0  0  0  0  0  0  0  0  0  0  0
    5.1962    3.0000    0.0000 C   0  0  0  0  0  0  0  0  0  0  0  0
    5.1962    4.5000    0.0000 C   0  0  0  0  0  0  0  0  0  0  0  0
    6.4952    2.2500    0.0000 O   0  0  0  0  0  0  0  0  0  0  0  0
  1  2  1  0
  2  3  1  0
  3  4  1  0
  4  5  1  0
  4  6  1  0
  6  7  1  0
  7  8  1  0
  7  9  2  0
M  END
>  <Title>  (1018) 
idABLFgen14

$$$$

     RDKit          2D

 34 38  0  0  0  0  0  0  0  0999 V2000
   -2.6401   -3.1891    0.0000 C   0  0  0  0  0  0  0  0  0  0  0  0
   -1.2135   -2.7256    0.0000 C   0  0  0  0  0  0  0  0  0  0  0  0
   -0.0000   -3.6073    0.0000 N   0  0  0  0  0  0  0  0  0  0  0  0
    1.2135   -2.7256    0.0000 C   0  0  0  0  0  0  0  0  0  0  0  0
    2.6401   -3.1891    0.0000 C   0  0  0  0  0  0  0  0  0  0  0  0
    3.7548   -2.1855    0.0000 O   0  0  0  0  0  0  0  0  0  0  0  0
    2.9520   -4.6564    0.0000 N   0  0  0  0  0  0  0  0  0  0  0  0
    4.3786   -5.1199    0.0000 C   0  0  0  0  0  0  0  0  0  0  0  0
    5.5921   -4.2382    0.0000 N   0  0  0  0  0  0  0  0  0  0  0  0
    6.8056   -5.1199    0.0000 N   0  0  0  0  0  0  0  0  0  0  0  0
    6.3421   -6.5465    0.0000 N   0  0  0  0  0  0  0  0  0  0  0  0
    4.8421   -6.5465    0.0000 N   0  0  0  0  0  0  0  0  0  0  0  0
    3.9604   -7.7600    0.0000 N   0  0  0  0  0  0  0  0  0  0  0  0
    4.4239   -9.1866    0.0000 C   0  0  0  0  0  0  0  0  0  0  0  0
    3.2104  -10.0683    0.0000 C   0  0  0  0  0  0  0  0  0  0  0  0
    1.9969   -9.1866    0.0000 N   0  0  0  0  0  0  0  0  0  0  0  0
    0.5703   -9.6501    0.0000 C   0  0  0  0  0  0  0  0  0  0  0  0
    0.2584  -11.1173    0.0000 O   0  0  0  0  0  0  0  0  0  0  0  0
   -0.5444   -8.6464    0.0000 N   0  0  0  0  0  0  0  0  0  0  0  0
   -1.9710   -9.1099    0.0000 C   0  0  0  0  0  0  0  0  0  0  0  0
   -3.0857   -8.1062    0.0000 N   0  0  0  0  0  0  0  0  0  0  0  0
   -4.5123   -8.5698    0.0000 N   0  0  0  0  0  0  0  0  0  0  0  0
   -4.8242  -10.0370    0.0000 N   0  0  0  0  0  0  0  0  0  0  0  0
   -3.7095  -11.0407    0.0000 N   0  0  0  0  0  0  0  0  0  0  0  0
   -2.2829  -10.5772    0.0000 N   0  0  0  0  0  0  0  0  0  0  0  0
    2.4604   -7.7600    0.0000 C   0  0  0  0  0  0  0  0  0  0  0  0
    1.5787   -6.5465    0.0000 O   0  0  0  0  0  0  0  0  0  0  0  0
    0.7500   -1.2990    0.0000 C   0  0  0  0  0  0  0  0  0  0  0  0
    1.5000    0.0000    0.0000 C   0  0  0  0  0  0  0  0  0  0  0  0
    0.7500    1.2990    0.0000 C   0  0  0  0  0  0  0  0  0  0  0  0
   -0.7500    1.2990    0.0000 C   0  0  0  0  0  0  0  0  0  0  0  0
   -1.5000    2.5981    0.0000 O   0  0  0  0  0  0  0  0  0  0  0  0
   -1.5000    0.0000    0.0000 C   0  0  0  0  0  0  0  0  0  0  0  0
   -0.7500   -1.2990    0.0000 C   0  0  0  0  0  0  0  0  0  0  0  0
  1  2  1  0
  2  3  2  0
  3  4  1  0
  4  5  1  0
  5  6  2  0
  5  7  1  0
  7  8  1  0
  8  9  2  0
  9 10  1  0
 10 11  2  0
 11 12  1  0
 12 13  1  0
 13 14  1  0
 14 15  1  0
 15 16  1  0
 16 17  1  0
 17 18  2  0
 17 19  1  0
 19 20  1  0
 20 21  2  0
 21 22  1  0
 22 23  2  0
 23 24  1  0
 24 25  2  0
 16 26  1  0
 26 27  2  0
  4 28  1  0
 28 29  2  0
 29 30  1  0
 30 31  2  0
 31 32  1  0
 31 33  1  0
 33 34  2  0
 34  2  1  0
 12  8  1  0
 26 13  1  0
 34 28  1  0
 25 20  1  0
M  END
>  <Title>  (1019) 
idABLGgen14

$$$$

     RDKit          2D

 37 41  0  0  0  0  0  0  0  0999 V2000
   -3.1965   -1.7857    0.0000 C   0  0  0  0  0  0  0  0  0  0  0  0
   -1.8107   -2.3597    0.0000 C   0  0  0  0  0  0  0  0  0  0  0  0
   -1.8107   -3.8597    0.0000 C   0  0  0  0  0  0  0  0  0  0  0  0
   -0.7500   -4.9204    0.0000 C   0  0  0  0  0  0  0  0  0  0  0  0
    0.7500   -4.9204    0.0000 C   0  0  0  0  0  0  0  0  0  0  0  0
    1.3240   -6.3062    0.0000 C   0  0  0  0  0  0  0  0  0  0  0  0
    2.8112   -6.5020    0.0000 O   0  0  0  0  0  0  0  0  0  0  0  0
    0.4109   -7.4962    0.0000 N   0  0  0  0  0  0  0  0  0  0  0  0
    0.9849   -8.8820    0.0000 C   0  0  0  0  0  0  0  0  0  0  0  0
    2.4435   -9.2322    0.0000 N   0  0  0  0  0  0  0  0  0  0  0  0
    2.5612  -10.7276    0.0000 N   0  0  0  0  0  0  0  0  0  0  0  0
    1.1753  -11.3016    0.0000 N   0  0  0  0  0  0  0  0  0  0  0  0
    0.2012  -10.1610    0.0000 N   0  0  0  0  0  0  0  0  0  0  0  0
   -1.2942  -10.2787    0.0000 N   0  0  0  0  0  0  0  0  0  0  0  0
   -2.0780  -11.5576    0.0000 C   0  0  0  0  0  0  0  0  0  0  0  0
   -3.5365  -11.2075    0.0000 C   0  0  0  0  0  0  0  0  0  0  0  0
   -3.6542   -9.7121    0.0000 N   0  0  0  0  0  0  0  0  0  0  0  0
   -4.9332   -8.9283    0.0000 C   0  0  0  0  0  0  0  0  0  0  0  0
   -6.2514   -9.6441    0.0000 O   0  0  0  0  0  0  0  0  0  0  0  0
   -4.8939   -7.4289    0.0000 N   0  0  0  0  0  0  0  0  0  0  0  0
   -6.1729   -6.6451    0.0000 C   0  0  0  0  0  0  0  0  0  0  0  0
   -6.1336   -5.1456    0.0000 N   0  0  0  0  0  0  0  0  0  0  0  0
   -7.4126   -4.3619    0.0000 N   0  0  0  0  0  0  0  0  0  0  0  0
   -8.7308   -5.0776    0.0000 N   0  0  0  0  0  0  0  0  0  0  0  0
   -8.7700   -6.5771    0.0000 N   0  0  0  0  0  0  0  0  0  0  0  0
   -7.4911   -7.3608    0.0000 N   0  0  0  0  0  0  0  0  0  0  0  0
   -2.2684   -9.1381    0.0000 C   0  0  0  0  0  0  0  0  0  0  0  0
   -1.9182   -7.6795    0.0000 O   0  0  0  0  0  0  0  0  0  0  0  0
    1.8107   -3.8597    0.0000 C   0  0  0  0  0  0  0  0  0  0  0  0
    3.1965   -4.4337    0.0000 O   0  0  0  0  0  0  0  0  0  0  0  0
    1.8107   -2.3597    0.0000 O   0  0  0  0  0  0  0  0  0  0  0  0
    0.7500   -1.2990    0.0000 C   0  0  0  0  0  0  0  0  0  0  0  0
    1.5000    0.0000    0.0000 C   0  0  0  0  0  0  0  0  0  0  0  0
    0.7500    1.2990    0.0000 C   0  0  0  0  0  0  0  0  0  0  0  0
   -0.7500    1.2990    0.0000 C   0  0  0  0  0  0  0  0  0  0  0  0
   -1.5000    0.0000    0.0000 C   0  0  0  0  0  0  0  0  0  0  0  0
   -0.7500   -1.2990    0.0000 C   0  0  0  0  0  0  0  0  0  0  0  0
  1  2  1  0
  2  3  1  0
  3  4  1  0
  4  5  1  0
  5  6  1  0
  6  7  2  0
  6  8  1  0
  8  9  1  0
  9 10  2  0
 10 11  1  0
 11 12  2  0
 12 13  1  0
 13 14  1  0
 14 15  1  0
 15 16  1  0
 16 17  1  0
 17 18  1  0
 18 19  2  0
 18 20  1  0
 20 21  1  0
 21 22  2  0
 22 23  1  0
 23 24  2  0
 24 25  1  0
 25 26  2  0
 17 27  1  0
 27 28  2  0
  5 29  1  0
 29 30  2  0
 29 31  1  0
 31 32  1  0
 32 33  2  0
 33 34  1  0
 34 35  2  0
 35 36  1  0
 36 37  2  0
 37  2  1  0
 13  9  1  0
 27 14  1  0
 37 32  1  0
 26 21  1  0
M  END
>  <Title>  (1020) 
idABLHgen14

$$$$

     RDKit          2D

 17 18  0  0  0  0  0  0  0  0999 V2000
   -0.7500   -3.8971    0.0000 O   0  0  0  0  0  0  0  0  0  0  0  0
    0.7500   -3.8971    0.0000 C   0  0  0  0  0  0  0  0  0  0  0  0
    1.5000   -2.5981    0.0000 C   0  0  0  0  0  0  0  0  0  0  0  0
    0.7500   -1.2990    0.0000 C   0  0  0  0  0  0  0  0  0  0  0  0
    1.5000    0.0000    0.0000 C   0  0  0  0  0  0  0  0  0  0  0  0
    0.7500    1.2990    0.0000 S   0  0  0  0  0  0  0  0  0  0  0  0
   -0.7500    1.2990    0.0000 C   0  0  0  0  0  0  0  0  0  0  0  0
   -1.5000    0.0000    0.0000 C   0  0  0  0  0  0  0  0  0  0  0  0
   -0.7500   -1.2990    0.0000 N   0  0  0  0  0  0  0  0  0  0  0  0
    1.5000   -5.1962    0.0000 N   0  0  0  0  0  0  0  0  0  0  0  0
    0.7500   -6.4952    0.0000 C   0  0  0  0  0  0  0  0  0  0  0  0
    1.5000   -7.7942    0.0000 C   0  0  0  0  0  0  0  0  0  0  0  0
    0.7500   -9.0933    0.0000 C   0  0  0  0  0  0  0  0  0  0  0  0
    1.5000  -10.3923    0.0000 C   0  0  0  0  0  0  0  0  0  0  0  0
    3.0000  -10.3923    0.0000 C   0  0  0  0  0  0  0  0  0  0  0  0
    3.7500   -9.0933    0.0000 N   0  0  0  0  0  0  0  0  0  0  0  0
    3.0000   -7.7942    0.0000 C   0  0  0  0  0  0  0  0  0  0  0  0
  1  2  1  0
  2  3  1  0
  3  4  1  0
  4  5  2  0
  5  6  1  0
  6  7  1  0
  7  8  1  0
  8  9  2  0
  2 10  1  0
 10 11  1  0
 11 12  1  0
 12 13  2  0
 13 14  1  0
 14 15  2  0
 15 16  1  0
 16 17  2  0
  9  4  1  0
 17 12  1  0
M  END
>  <Title>  (1021) 
idABLIgen14

$$$$

     RDKit          2D

 97 98  0  0  0  0  0  0  0  0999 V2000
   12.4715    4.5286    0.0000 C   0  0  0  0  0  0  0  0  0  0  0  0
   13.2670    4.4772    0.0000 C   0  0  0  0  0  0  0  0  0  0  0  0
   13.4780    5.9622    0.0000 C   0  0  0  0  0  0  0  0  0  0  0  0
   13.9132    7.3977    0.0000 C   0  0  0  0  0  0  0  0  0  0  0  0
   14.5625    8.7499    0.0000 C   0  0  0  0  0  0  0  0  0  0  0  0
   15.4106    9.9871    0.0000 C   0  0  0  0  0  0  0  0  0  0  0  0
   16.4376   11.0804    0.0000 C   0  0  0  0  0  0  0  0  0  0  0  0
   17.6194   12.0041    0.0000 C   0  0  0  0  0  0  0  0  0  0  0  0
   18.9284   12.7366    0.0000 C   0  0  0  0  0  0  0  0  0  0  0  0
   20.3339   13.2607    0.0000 C   0  0  0  0  0  0  0  0  0  0  0  0
   21.8029   13.5641    0.0000 C   0  0  0  0  0  0  0  0  0  0  0  0
   23.3010   13.6396    0.0000 C   0  0  0  0  0  0  0  0  0  0  0  0
   24.7931   13.4857    0.0000 C   0  0  0  0  0  0  0  0  0  0  0  0
   26.2442   13.1057    0.0000 C   0  0  0  0  0  0  0  0  0  0  0  0
   27.6202   12.5087    0.0000 C   0  0  0  0  0  0  0  0  0  0  0  0
   28.8891   11.7087    0.0000 C   0  0  0  0  0  0  0  0  0  0  0  0
   30.0209   10.7243    0.0000 C   0  0  0  0  0  0  0  0  0  0  0  0
   30.9892    9.5787    0.0000 C   0  0  0  0  0  0  0  0  0  0  0  0
   31.7712    8.2987    0.0000 C   0  0  0  0  0  0  0  0  0  0  0  0
   32.3488    6.9143    0.0000 C   0  0  0  0  0  0  0  0  0  0  0  0
   32.7082    5.4580    0.0000 C   0  0  0  0  0  0  0  0  0  0  0  0
   32.8411    3.9639    0.0000 C   0  0  0  0  0  0  0  0  0  0  0  0
   32.7444    2.4671    0.0000 C   0  0  0  0  0  0  0  0  0  0  0  0
   32.4203    1.0025    0.0000 C   0  0  0  0  0  0  0  0  0  0  0  0
   31.8764   -0.3955    0.0000 C   0  0  0  0  0  0  0  0  0  0  0  0
   31.1256   -1.6940    0.0000 C   0  0  0  0  0  0  0  0  0  0  0  0
   30.1853   -2.8627    0.0000 C   0  0  0  0  0  0  0  0  0  0  0  0
   29.0776   -3.8741    0.0000 C   0  0  0  0  0  0  0  0  0  0  0  0
   27.8285   -4.7047    0.0000 C   0  0  0  0  0  0  0  0  0  0  0  0
   26.4673   -5.3348    0.0000 C   0  0  0  0  0  0  0  0  0  0  0  0
   25.0258   -5.7497    0.0000 C   0  0  0  0  0  0  0  0  0  0  0  0
   23.5379   -5.9398    0.0000 C   0  0  0  0  0  0  0  0  0  0  0  0
   22.0384   -5.9005    0.0000 C   0  0  0  0  0  0  0  0  0  0  0  0
   20.5625   -5.6327    0.0000 C   0  0  0  0  0  0  0  0  0  0  0  0
   19.1448   -5.1428    0.0000 C   0  0  0  0  0  0  0  0  0  0  0  0
   17.8184   -4.4422    0.0000 C   0  0  0  0  0  0  0  0  0  0  0  0
   16.6146   -3.5474    0.0000 C   0  0  0  0  0  0  0  0  0  0  0  0
   15.5614   -2.4793    0.0000 C   0  0  0  0  0  0  0  0  0  0  0  0
   14.6837   -1.2629    0.0000 C   0  0  0  0  0  0  0  0  0  0  0  0
   14.0019    0.0732    0.0000 C   0  0  0  0  0  0  0  0  0  0  0  0
   13.5320    1.4977    0.0000 C   0  0  0  0  0  0  0  0  0  0  0  0
   12.9146   -0.0000    0.0000 C   0  0  0  0  0  0  0  0  0  0  0  0
   12.8363   -1.4207    0.0000 C   0  0  0  0  0  0  0  0  0  0  0  0
   12.6021   -2.8242    0.0000 C   0  0  0  0  0  0  0  0  0  0  0  0
   12.2149   -4.1934    0.0000 C   0  0  0  0  0  0  0  0  0  0  0  0
   11.6794   -5.5117    0.0000 C   0  0  0  0  0  0  0  0  0  0  0  0
   11.0022   -6.7630    0.0000 C   0  0  0  0  0  0  0  0  0  0  0  0
   10.1915   -7.9323    0.0000 C   0  0  0  0  0  0  0  0  0  0  0  0
    9.2570   -9.0053    0.0000 C   0  0  0  0  0  0  0  0  0  0  0  0
    8.2101   -9.9690    0.0000 C   0  0  0  0  0  0  0  0  0  0  0  0
    7.0636  -10.8117    0.0000 C   0  0  0  0  0  0  0  0  0  0  0  0
    5.8314  -11.5231    0.0000 C   0  0  0  0  0  0  0  0  0  0  0  0
    4.5284  -12.0947    0.0000 C   0  0  0  0  0  0  0  0  0  0  0  0
    3.1704  -12.5195    0.0000 C   0  0  0  0  0  0  0  0  0  0  0  0
    1.7739  -12.7922    0.0000 C   0  0  0  0  0  0  0  0  0  0  0  0
    0.3559  -12.9097    0.0000 C   0  0  0  0  0  0  0  0  0  0  0  0
   -1.0665  -12.8705    0.0000 C   0  0  0  0  0  0  0  0  0  0  0  0
   -2.4759  -12.6751    0.0000 C   0  0  0  0  0  0  0  0  0  0  0  0
   -3.8552  -12.3258    0.0000 C   0  0  0  0  0  0  0  0  0  0  0  0
   -5.1878  -11.8269    0.0000 C   0  0  0  0  0  0  0  0  0  0  0  0
   -6.4573  -11.1844    0.0000 C   0  0  0  0  0  0  0  0  0  0  0  0
   -7.6485  -10.4062    0.0000 C   0  0  0  0  0  0  0  0  0  0  0  0
   -8.7468   -9.5016    0.0000 C   0  0  0  0  0  0  0  0  0  0  0  0
   -9.7390   -8.4817    0.0000 C   0  0  0  0  0  0  0  0  0  0  0  0
  -10.6130   -7.3589    0.0000 C   0  0  0  0  0  0  0  0  0  0  0  0
  -11.3581   -6.1467    0.0000 C   0  0  0  0  0  0  0  0  0  0  0  0
  -11.9653   -4.8599    0.0000 C   0  0  0  0  0  0  0  0  0  0  0  0
  -12.4273   -3.5141    0.0000 C   0  0  0  0  0  0  0  0  0  0  0  0
  -12.7385   -2.1257    0.0000 C   0  0  0  0  0  0  0  0  0  0  0  0
  -12.8950   -0.7114    0.0000 C   0  0  0  0  0  0  0  0  0  0  0  0
  -12.8950    0.7114    0.0000 C   0  0  0  0  0  0  0  0  0  0  0  0
  -12.7385    2.1257    0.0000 C   0  0  0  0  0  0  0  0  0  0  0  0
  -12.4273    3.5141    0.0000 C   0  0  0  0  0  0  0  0  0  0  0  0
  -11.9653    4.8599    0.0000 C   0  0  0  0  0  0  0  0  0  0  0  0
  -11.3581    6.1467    0.0000 C   0  0  0  0  0  0  0  0  0  0  0  0
  -10.6130    7.3589    0.0000 C   0  0  0  0  0  0  0  0  0  0  0  0
   -9.7390    8.4817    0.0000 C   0  0  0  0  0  0  0  0  0  0  0  0
   -8.7468    9.5016    0.0000 C   0  0  0  0  0  0  0  0  0  0  0  0
   -7.6485   10.4062    0.0000 C   0  0  0  0  0  0  0  0  0  0  0  0
   -6.4573   11.1844    0.0000 C   0  0  0  0  0  0  0  0  0  0  0  0
   -5.1878   11.8269    0.0000 C   0  0  0  0  0  0  0  0  0  0  0  0
   -3.8552   12.3258    0.0000 C   0  0  0  0  0  0  0  0  0  0  0  0
   -2.4759   12.6751    0.0000 C   0  0  0  0  0  0  0  0  0  0  0  0
   -1.0665   12.8705    0.0000 C   0  0  0  0  0  0  0  0  0  0  0  0
    0.3559   12.9097    0.0000 C   0  0  0  0  0  0  0  0  0  0  0  0
    1.7739   12.7922    0.0000 C   0  0  0  0  0  0  0  0  0  0  0  0
    3.1704   12.5195    0.0000 C   0  0  0  0  0  0  0  0  0  0  0  0
    4.5284   12.0947    0.0000 C   0  0  0  0  0  0  0  0  0  0  0  0
    5.8314   11.5231    0.0000 C   0  0  0  0  0  0  0  0  0  0  0  0
    7.0636   10.8117    0.0000 C   0  0  0  0  0  0  0  0  0  0  0  0
    8.2101    9.9690    0.0000 C   0  0  0  0  0  0  0  0  0  0  0  0
    9.2570    9.0053    0.0000 C   0  0  0  0  0  0  0  0  0  0  0  0
   10.1915    7.9323    0.0000 C   0  0  0  0  0  0  0  0  0  0  0  0
   11.0022    6.7630    0.0000 C   0  0  0  0  0  0  0  0  0  0  0  0
   11.6794    5.5117    0.0000 C   0  0  0  0  0  0  0  0  0  0  0  0
   12.2149    4.1934    0.0000 C   0  0  0  0  0  0  0  0  0  0  0  0
   13.2851    2.9773    0.0000 C   0  0  0  0  0  0  0  0  0  0  0  0
  1  2  1  0
  2  3  1  0
  3  4  1  0
  4  5  1  0
  5  6  1  0
  6  7  1  0
  7  8  1  0
  8  9  1  0
  9 10  1  0
 10 11  1  0
 11 12  1  0
 12 13  1  0
 13 14  1  0
 14 15  1  0
 15 16  1  0
 16 17  1  0
 17 18  1  0
 18 19  1  0
 19 20  1  0
 20 21  1  0
 21 22  1  0
 22 23  1  0
 23 24  1  0
 24 25  1  0
 25 26  1  0
 26 27  1  0
 27 28  1  0
 28 29  1  0
 29 30  1  0
 30 31  1  0
 31 32  1  0
 32 33  1  0
 33 34  1  0
 34 35  1  0
 35 36  1  0
 36 37  1  0
 37 38  1  0
 38 39  1  0
 39 40  1  0
 40 41  1  0
 41 42  1  0
 42 43  1  0
 43 44  1  0
 44 45  1  0
 45 46  1  0
 46 47  1  0
 47 48  1  0
 48 49  1  0
 49 50  1  0
 50 51  1  0
 51 52  1  0
 52 53  1  0
 53 54  1  0
 54 55  1  0
 55 56  1  0
 56 57  1  0
 57 58  1  0
 58 59  1  0
 59 60  1  0
 60 61  1  0
 61 62  1  0
 62 63  1  0
 63 64  1  0
 64 65  1  0
 65 66  1  0
 66 67  1  0
 67 68  1  0
 68 69  1  0
 69 70  1  0
 70 71  1  0
 71 72  1  0
 72 73  1  0
 73 74  1  0
 74 75  1  0
 75 76  1  0
 76 77  1  0
 77 78  1  0
 78 79  1  0
 79 80  1  0
 80 81  1  0
 81 82  1  0
 82 83  1  0
 83 84  1  0
 84 85  1  0
 85 86  1  0
 86 87  2  0
 87 88  1  0
 88 89  2  0
 89 90  1  0
 90 91  2  0
 91 92  1  0
 92 93  2  0
 93 94  1  0
 94 95  2  0
 95 96  1  0
 96 97  2  0
 97  2  1  0
 97 41  1  0
M  END
>  <Title>  (1022) 
idABLJgen14

$$$$

     RDKit          2D

 29 32  0  0  0  0  0  0  0  0999 V2000
   -6.7871  -11.9852    0.0000 C   0  0  0  0  0  0  0  0  0  0  0  0
   -7.0990  -10.5179    0.0000 C   0  0  0  0  0  0  0  0  0  0  0  0
   -5.9843   -9.5142    0.0000 C   0  0  0  0  0  0  0  0  0  0  0  0
   -6.2961   -8.0470    0.0000 C   0  0  0  0  0  0  0  0  0  0  0  0
   -7.7227   -7.5835    0.0000 C   0  0  0  0  0  0  0  0  0  0  0  0
   -5.1814   -7.0433    0.0000 C   0  0  0  0  0  0  0  0  0  0  0  0
   -3.7548   -7.5069    0.0000 C   0  0  0  0  0  0  0  0  0  0  0  0
   -3.4430   -8.9741    0.0000 O   0  0  0  0  0  0  0  0  0  0  0  0
   -2.6401   -6.5032    0.0000 N   0  0  0  0  0  0  0  0  0  0  0  0
   -1.2135   -6.9667    0.0000 C   0  0  0  0  0  0  0  0  0  0  0  0
   -0.7500   -8.3933    0.0000 N   0  0  0  0  0  0  0  0  0  0  0  0
    0.7500   -8.3933    0.0000 N   0  0  0  0  0  0  0  0  0  0  0  0
    1.2135   -6.9667    0.0000 N   0  0  0  0  0  0  0  0  0  0  0  0
   -0.0000   -6.0850    0.0000 N   0  0  0  0  0  0  0  0  0  0  0  0
   -0.0000   -4.5850    0.0000 N   0  0  0  0  0  0  0  0  0  0  0  0
    1.3515   -3.9342    0.0000 C   0  0  0  0  0  0  0  0  0  0  0  0
    1.6852   -2.4718    0.0000 C   0  0  0  0  0  0  0  0  0  0  0  0
    0.7500   -1.2990    0.0000 C   0  0  0  0  0  0  0  0  0  0  0  0
    1.5000    0.0000    0.0000 C   0  0  0  0  0  0  0  0  0  0  0  0
    0.7500    1.2990    0.0000 C   0  0  0  0  0  0  0  0  0  0  0  0
   -0.7500    1.2990    0.0000 C   0  0  0  0  0  0  0  0  0  0  0  0
   -1.5000    0.0000    0.0000 C   0  0  0  0  0  0  0  0  0  0  0  0
   -0.7500   -1.2990    0.0000 C   0  0  0  0  0  0  0  0  0  0  0  0
   -1.6852   -2.4718    0.0000 C   0  0  0  0  0  0  0  0  0  0  0  0
   -3.1186   -2.0297    0.0000 C   0  0  0  0  0  0  0  0  0  0  0  0
   -4.2182   -3.0499    0.0000 C   0  0  0  0  0  0  0  0  0  0  0  0
   -3.8844   -4.5123    0.0000 C   0  0  0  0  0  0  0  0  0  0  0  0
   -2.4510   -4.9544    0.0000 C   0  0  0  0  0  0  0  0  0  0  0  0
   -1.3515   -3.9342    0.0000 C   0  0  0  0  0  0  0  0  0  0  0  0
  1  2  1  0
  2  3  1  0
  3  4  1  0
  4  5  1  0
  4  6  1  0
  6  7  1  0
  7  8  2  0
  7  9  1  0
  9 10  1  0
 10 11  2  0
 11 12  1  0
 12 13  2  0
 13 14  1  0
 14 15  1  0
 15 16  1  0
 16 17  1  0
 17 18  1  0
 18 19  2  0
 19 20  1  0
 20 21  2  0
 21 22  1  0
 22 23  2  0
 23 24  1  0
 24 25  2  0
 25 26  1  0
 26 27  2  0
 27 28  1  0
 28 29  2  0
 14 10  1  0
 29 15  1  0
 23 18  1  0
 29 24  1  0
M  END
>  <Title>  (1023) 
idABLKgen14

$$$$

     RDKit          2D

 10 10  0  0  0  0  0  0  0  0999 V2000
    6.0000   -2.5981    0.0000 C   0  0  0  0  0  0  0  0  0  0  0  0
    5.2500   -1.2990    0.0000 C   0  0  0  0  0  0  0  0  0  0  0  0
    3.7500   -1.2990    0.0000 C   0  0  0  0  0  0  0  0  0  0  0  0
    3.0000    0.0000    0.0000 N   0  0  0  0  0  0  0  0  0  0  0  0
    1.5000    0.0000    0.0000 C   0  0  0  0  0  0  0  0  0  0  0  0
    0.7500   -1.2990    0.0000 C   0  0  0  0  0  0  0  0  0  0  0  0
   -0.7500   -1.2990    0.0000 C   0  0  0  0  0  0  0  0  0  0  0  0
   -1.5000    0.0000    0.0000 C   0  0  0  0  0  0  0  0  0  0  0  0
   -0.7500    1.2990    0.0000 N   0  0  0  0  0  0  0  0  0  0  0  0
    0.7500    1.2990    0.0000 C   0  0  0  0  0  0  0  0  0  0  0  0
  1  2  1  0
  2  3  2  3
  3  4  1  0
  4  5  1  0
  5  6  2  0
  6  7  1  0
  7  8  2  0
  8  9  1  0
  9 10  2  0
 10  5  1  0
M  END
>  <Title>  (1024) 
idABLLgen14

$$$$

     RDKit          2D

 47 53  0  0  0  0  0  0  0  0999 V2000
    1.2135   -7.3421    0.0000 C   0  0  0  0  0  0  0  0  0  0  0  0
    0.7500   -5.9156    0.0000 C   0  0  0  0  0  0  0  0  0  0  0  0
    1.9635   -5.0339    0.0000 C   0  0  0  0  0  0  0  0  0  0  0  0
    2.4271   -3.6073    0.0000 C   0  0  0  0  0  0  0  0  0  0  0  0
    1.9635   -2.1807    0.0000 C   0  0  0  0  0  0  0  0  0  0  0  0
    3.1771   -1.2990    0.0000 C   0  0  0  0  0  0  0  0  0  0  0  0
    3.0203    0.1927    0.0000 O   0  0  0  0  0  0  0  0  0  0  0  0
    4.5474   -1.9091    0.0000 N   0  0  0  0  0  0  0  0  0  0  0  0
    5.7609   -1.0275    0.0000 C   0  0  0  0  0  0  0  0  0  0  0  0
    5.7609    0.4725    0.0000 N   0  0  0  0  0  0  0  0  0  0  0  0
    7.1875    0.9361    0.0000 N   0  0  0  0  0  0  0  0  0  0  0  0
    8.0692   -0.2775    0.0000 N   0  0  0  0  0  0  0  0  0  0  0  0
    7.1875   -1.4910    0.0000 N   0  0  0  0  0  0  0  0  0  0  0  0
    7.6510   -2.9176    0.0000 C   0  0  0  0  0  0  0  0  0  0  0  0
    9.0776   -3.3811    0.0000 C   0  0  0  0  0  0  0  0  0  0  0  0
    9.0776   -4.8811    0.0000 C   0  0  0  0  0  0  0  0  0  0  0  0
    7.6510   -5.3446    0.0000 C   0  0  0  0  0  0  0  0  0  0  0  0
    7.1875   -6.7712    0.0000 O   0  0  0  0  0  0  0  0  0  0  0  0
    5.7203   -7.0831    0.0000 C   0  0  0  0  0  0  0  0  0  0  0  0
    4.7166   -5.9684    0.0000 O   0  0  0  0  0  0  0  0  0  0  0  0
    5.2567   -8.5097    0.0000 N   0  0  0  0  0  0  0  0  0  0  0  0
    6.2604   -9.6244    0.0000 C   0  0  0  0  0  0  0  0  0  0  0  0
    5.7969  -11.0510    0.0000 N   0  0  0  0  0  0  0  0  0  0  0  0
    6.8006  -12.1657    0.0000 N   0  0  0  0  0  0  0  0  0  0  0  0
    8.2678  -11.8538    0.0000 N   0  0  0  0  0  0  0  0  0  0  0  0
    8.7313  -10.4272    0.0000 N   0  0  0  0  0  0  0  0  0  0  0  0
    7.7276   -9.3125    0.0000 N   0  0  0  0  0  0  0  0  0  0  0  0
    6.7693   -4.1311    0.0000 C   0  0  0  0  0  0  0  0  0  0  0  0
    5.2693   -4.1311    0.0000 O   0  0  0  0  0  0  0  0  0  0  0  0
    0.7500   -1.2990    0.0000 C   0  0  0  0  0  0  0  0  0  0  0  0
    1.5000    0.0000    0.0000 C   0  0  0  0  0  0  0  0  0  0  0  0
    0.7500    1.2990    0.0000 C   0  0  0  0  0  0  0  0  0  0  0  0
   -0.7500    1.2990    0.0000 C   0  0  0  0  0  0  0  0  0  0  0  0
   -1.5000    0.0000    0.0000 C   0  0  0  0  0  0  0  0  0  0  0  0
   -0.7500   -1.2990    0.0000 C   0  0  0  0  0  0  0  0  0  0  0  0
   -1.9635   -2.1807    0.0000 C   0  0  0  0  0  0  0  0  0  0  0  0
   -2.9672   -1.0660    0.0000 C   0  0  0  0  0  0  0  0  0  0  0  0
   -4.4344   -1.3779    0.0000 C   0  0  0  0  0  0  0  0  0  0  0  0
   -4.8980   -2.8045    0.0000 C   0  0  0  0  0  0  0  0  0  0  0  0
   -3.8943   -3.9192    0.0000 C   0  0  0  0  0  0  0  0  0  0  0  0
   -2.4271   -3.6073    0.0000 C   0  0  0  0  0  0  0  0  0  0  0  0
   -1.9635   -5.0339    0.0000 C   0  0  0  0  0  0  0  0  0  0  0  0
   -3.3338   -5.6440    0.0000 C   0  0  0  0  0  0  0  0  0  0  0  0
   -3.4906   -7.1358    0.0000 C   0  0  0  0  0  0  0  0  0  0  0  0
   -2.2771   -8.0175    0.0000 C   0  0  0  0  0  0  0  0  0  0  0  0
   -0.9068   -7.4073    0.0000 C   0  0  0  0  0  0  0  0  0  0  0  0
   -0.7500   -5.9156    0.0000 C   0  0  0  0  0  0  0  0  0  0  0  0
  1  2  1  0
  2  3  1  0
  3  4  2  0
  4  5  1  0
  5  6  1  0
  6  7  2  0
  6  8  1  0
  8  9  1  0
  9 10  2  0
 10 11  1  0
 11 12  2  0
 12 13  1  0
 13 14  1  0
 14 15  2  0
 15 16  1  0
 16 17  2  0
 17 18  1  0
 18 19  1  0
 19 20  2  0
 19 21  1  0
 21 22  1  0
 22 23  2  0
 23 24  1  0
 24 25  2  0
 25 26  1  0
 26 27  2  0
 17 28  1  0
 28 29  2  0
  5 30  1  0
 30 31  2  0
 31 32  1  0
 32 33  2  0
 33 34  1  0
 34 35  2  0
 35 36  1  0
 36 37  2  0
 37 38  1  0
 38 39  2  0
 39 40  1  0
 40 41  2  0
 41 42  1  0
 42 43  2  0
 43 44  1  0
 44 45  2  0
 45 46  1  0
 46 47  2  0
 47  2  1  0
 13  9  1  0
 28 14  1  0
 35 30  1  0
 41 36  1  0
 47 42  1  0
 27 22  1  0
M  END
>  <Title>  (1025) 
idABLMgen14

$$$$

     RDKit          2D

 36 40  0  0  0  0  0  0  0  0999 V2000
   -3.1965   -1.7857    0.0000 C   0  0  0  0  0  0  0  0  0  0  0  0
   -1.8107   -2.3597    0.0000 C   0  0  0  0  0  0  0  0  0  0  0  0
   -1.8107   -3.8597    0.0000 C   0  0  0  0  0  0  0  0  0  0  0  0
   -0.7500   -4.9204    0.0000 C   0  0  0  0  0  0  0  0  0  0  0  0
    0.7500   -4.9204    0.0000 C   0  0  0  0  0  0  0  0  0  0  0  0
    1.8107   -3.8597    0.0000 C   0  0  0  0  0  0  0  0  0  0  0  0
    1.8107   -2.3597    0.0000 C   0  0  0  0  0  0  0  0  0  0  0  0
    3.1965   -1.7857    0.0000 C   0  0  0  0  0  0  0  0  0  0  0  0
    3.3923   -0.2985    0.0000 O   0  0  0  0  0  0  0  0  0  0  0  0
    4.3865   -2.6988    0.0000 N   0  0  0  0  0  0  0  0  0  0  0  0
    5.7723   -2.1248    0.0000 C   0  0  0  0  0  0  0  0  0  0  0  0
    6.1225   -0.6662    0.0000 N   0  0  0  0  0  0  0  0  0  0  0  0
    7.6179   -0.5485    0.0000 N   0  0  0  0  0  0  0  0  0  0  0  0
    8.1919   -1.9344    0.0000 N   0  0  0  0  0  0  0  0  0  0  0  0
    7.0513   -2.9085    0.0000 N   0  0  0  0  0  0  0  0  0  0  0  0
    7.1690   -4.4039    0.0000 C   0  0  0  0  0  0  0  0  0  0  0  0
    8.4479   -5.1877    0.0000 C   0  0  0  0  0  0  0  0  0  0  0  0
    8.0978   -6.6462    0.0000 C   0  0  0  0  0  0  0  0  0  0  0  0
    6.6024   -6.7639    0.0000 C   0  0  0  0  0  0  0  0  0  0  0  0
    5.8186   -8.0429    0.0000 C   0  0  0  0  0  0  0  0  0  0  0  0
    6.5344   -9.3611    0.0000 O   0  0  0  0  0  0  0  0  0  0  0  0
    4.3192   -8.0036    0.0000 N   0  0  0  0  0  0  0  0  0  0  0  0
    3.5354   -9.2826    0.0000 C   0  0  0  0  0  0  0  0  0  0  0  0
    2.0359   -9.2433    0.0000 N   0  0  0  0  0  0  0  0  0  0  0  0
    1.2522  -10.5223    0.0000 N   0  0  0  0  0  0  0  0  0  0  0  0
    1.9679  -11.8405    0.0000 N   0  0  0  0  0  0  0  0  0  0  0  0
    3.4674  -11.8797    0.0000 N   0  0  0  0  0  0  0  0  0  0  0  0
    4.2512  -10.6008    0.0000 N   0  0  0  0  0  0  0  0  0  0  0  0
    6.0284   -5.3781    0.0000 C   0  0  0  0  0  0  0  0  0  0  0  0
    4.5698   -5.0279    0.0000 O   0  0  0  0  0  0  0  0  0  0  0  0
    0.7500   -1.2990    0.0000 C   0  0  0  0  0  0  0  0  0  0  0  0
    1.5000    0.0000    0.0000 C   0  0  0  0  0  0  0  0  0  0  0  0
    0.7500    1.2990    0.0000 C   0  0  0  0  0  0  0  0  0  0  0  0
   -0.7500    1.2990    0.0000 C   0  0  0  0  0  0  0  0  0  0  0  0
   -1.5000    0.0000    0.0000 C   0  0  0  0  0  0  0  0  0  0  0  0
   -0.7500   -1.2990    0.0000 C   0  0  0  0  0  0  0  0  0  0  0  0
  1  2  1  0
  2  3  1  0
  3  4  2  0
  4  5  1  0
  5  6  1  0
  6  7  2  0
  7  8  1  0
  8  9  2  0
  8 10  1  0
 10 11  1  0
 11 12  2  0
 12 13  1  0
 13 14  2  0
 14 15  1  0
 15 16  1  0
 16 17  2  0
 17 18  1  0
 18 19  2  0
 19 20  1  0
 20 21  2  0
 20 22  1  0
 22 23  1  0
 23 24  2  0
 24 25  1  0
 25 26  2  0
 26 27  1  0
 27 28  2  0
 19 29  1  0
 29 30  2  0
  7 31  1  0
 31 32  2  0
 32 33  1  0
 33 34  2  0
 34 35  1  0
 35 36  2  0
 36  2  1  0
 15 11  1  0
 29 16  1  0
 36 31  1  0
 28 23  1  0
M  END
>  <Title>  (1026) 
idABLNgen14

$$$$

     RDKit          2D

 82 84  0  0  0  0  0  0  0  0999 V2000
   -5.6176   -0.6355    0.0000 C   0  0  0  0  0  0  0  0  0  0  0  0
   -5.1725   -2.0680    0.0000 C   0  0  0  0  0  0  0  0  0  0  0  0
   -6.5845   -2.5742    0.0000 C   0  0  0  0  0  0  0  0  0  0  0  0
   -7.9478   -3.2000    0.0000 C   0  0  0  0  0  0  0  0  0  0  0  0
   -9.2521   -3.9407    0.0000 C   0  0  0  0  0  0  0  0  0  0  0  0
  -10.4880   -4.7907    0.0000 C   0  0  0  0  0  0  0  0  0  0  0  0
  -11.6463   -5.7439    0.0000 C   0  0  0  0  0  0  0  0  0  0  0  0
  -12.7183   -6.7931    0.0000 C   0  0  0  0  0  0  0  0  0  0  0  0
  -13.6961   -7.9305    0.0000 C   0  0  0  0  0  0  0  0  0  0  0  0
  -14.5726   -9.1478    0.0000 C   0  0  0  0  0  0  0  0  0  0  0  0
  -15.3411  -10.4360    0.0000 C   0  0  0  0  0  0  0  0  0  0  0  0
  -15.9961  -11.7854    0.0000 C   0  0  0  0  0  0  0  0  0  0  0  0
  -16.5326  -13.1862    0.0000 C   0  0  0  0  0  0  0  0  0  0  0  0
  -16.9468  -14.6279    0.0000 C   0  0  0  0  0  0  0  0  0  0  0  0
  -17.2355  -16.0999    0.0000 C   0  0  0  0  0  0  0  0  0  0  0  0
  -17.3965  -17.5912    0.0000 C   0  0  0  0  0  0  0  0  0  0  0  0
  -17.4288  -19.0908    0.0000 C   0  0  0  0  0  0  0  0  0  0  0  0
  -17.3320  -20.5877    0.0000 C   0  0  0  0  0  0  0  0  0  0  0  0
  -17.1070  -22.0707    0.0000 C   0  0  0  0  0  0  0  0  0  0  0  0
  -16.7552  -23.5289    0.0000 C   0  0  0  0  0  0  0  0  0  0  0  0
  -16.2794  -24.9514    0.0000 C   0  0  0  0  0  0  0  0  0  0  0  0
  -15.6831  -26.3278    0.0000 C   0  0  0  0  0  0  0  0  0  0  0  0
  -14.9707  -27.6478    0.0000 C   0  0  0  0  0  0  0  0  0  0  0  0
  -14.1474  -28.9017    0.0000 C   0  0  0  0  0  0  0  0  0  0  0  0
  -13.2194  -30.0802    0.0000 C   0  0  0  0  0  0  0  0  0  0  0  0
  -12.1935  -31.1745    0.0000 C   0  0  0  0  0  0  0  0  0  0  0  0
  -11.0774  -32.1766    0.0000 C   0  0  0  0  0  0  0  0  0  0  0  0
   -9.8792  -33.0791    0.0000 C   0  0  0  0  0  0  0  0  0  0  0  0
   -8.6079  -33.8752    0.0000 C   0  0  0  0  0  0  0  0  0  0  0  0
   -7.2729  -34.5590    0.0000 C   0  0  0  0  0  0  0  0  0  0  0  0
   -5.8840  -35.1256    0.0000 C   0  0  0  0  0  0  0  0  0  0  0  0
   -4.4515  -35.5707    0.0000 C   0  0  0  0  0  0  0  0  0  0  0  0
   -2.9861  -35.8909    0.0000 C   0  0  0  0  0  0  0  0  0  0  0  0
   -1.4986  -36.0841    0.0000 C   0  0  0  0  0  0  0  0  0  0  0  0
   -0.0000  -36.1486    0.0000 C   0  0  0  0  0  0  0  0  0  0  0  0
    1.4986  -36.0841    0.0000 C   0  0  0  0  0  0  0  0  0  0  0  0
    2.9861  -35.8909    0.0000 C   0  0  0  0  0  0  0  0  0  0  0  0
    4.4515  -35.5707    0.0000 C   0  0  0  0  0  0  0  0  0  0  0  0
    5.8840  -35.1256    0.0000 C   0  0  0  0  0  0  0  0  0  0  0  0
    7.2729  -34.5590    0.0000 C   0  0  0  0  0  0  0  0  0  0  0  0
    8.6079  -33.8752    0.0000 C   0  0  0  0  0  0  0  0  0  0  0  0
    9.8792  -33.0791    0.0000 C   0  0  0  0  0  0  0  0  0  0  0  0
   11.0774  -32.1766    0.0000 C   0  0  0  0  0  0  0  0  0  0  0  0
   12.1935  -31.1745    0.0000 C   0  0  0  0  0  0  0  0  0  0  0  0
   13.2194  -30.0802    0.0000 C   0  0  0  0  0  0  0  0  0  0  0  0
   14.1474  -28.9017    0.0000 C   0  0  0  0  0  0  0  0  0  0  0  0
   14.9707  -27.6478    0.0000 C   0  0  0  0  0  0  0  0  0  0  0  0
   15.6831  -26.3278    0.0000 C   0  0  0  0  0  0  0  0  0  0  0  0
   16.2794  -24.9514    0.0000 C   0  0  0  0  0  0  0  0  0  0  0  0
   16.7552  -23.5289    0.0000 C   0  0  0  0  0  0  0  0  0  0  0  0
   17.1070  -22.0707    0.0000 C   0  0  0  0  0  0  0  0  0  0  0  0
   17.3320  -20.5877    0.0000 C   0  0  0  0  0  0  0  0  0  0  0  0
   17.4288  -19.0908    0.0000 C   0  0  0  0  0  0  0  0  0  0  0  0
   17.3965  -17.5912    0.0000 C   0  0  0  0  0  0  0  0  0  0  0  0
   17.2355  -16.0999    0.0000 C   0  0  0  0  0  0  0  0  0  0  0  0
   16.9468  -14.6279    0.0000 C   0  0  0  0  0  0  0  0  0  0  0  0
   16.5326  -13.1862    0.0000 C   0  0  0  0  0  0  0  0  0  0  0  0
   15.9961  -11.7854    0.0000 C   0  0  0  0  0  0  0  0  0  0  0  0
   15.3411  -10.4360    0.0000 C   0  0  0  0  0  0  0  0  0  0  0  0
   14.5726   -9.1478    0.0000 C   0  0  0  0  0  0  0  0  0  0  0  0
   13.6961   -7.9305    0.0000 C   0  0  0  0  0  0  0  0  0  0  0  0
   12.7183   -6.7931    0.0000 C   0  0  0  0  0  0  0  0  0  0  0  0
   11.6463   -5.7439    0.0000 C   0  0  0  0  0  0  0  0  0  0  0  0
   10.4880   -4.7907    0.0000 C   0  0  0  0  0  0  0  0  0  0  0  0
    9.2521   -3.9407    0.0000 C   0  0  0  0  0  0  0  0  0  0  0  0
    7.9478   -3.2000    0.0000 C   0  0  0  0  0  0  0  0  0  0  0  0
    6.5845   -2.5742    0.0000 C   0  0  0  0  0  0  0  0  0  0  0  0
    5.1725   -2.0680    0.0000 C   0  0  0  0  0  0  0  0  0  0  0  0
    3.7223   -1.6849    0.0000 C   0  0  0  0  0  0  0  0  0  0  0  0
    2.2444   -1.4280    0.0000 C   0  0  0  0  0  0  0  0  0  0  0  0
    0.7500   -1.2990    0.0000 C   0  0  0  0  0  0  0  0  0  0  0  0
    1.5000    0.0000    0.0000 C   0  0  0  0  0  0  0  0  0  0  0  0
    0.7500    1.2990    0.0000 C   0  0  0  0  0  0  0  0  0  0  0  0
   -0.7500    1.2990    0.0000 C   0  0  0  0  0  0  0  0  0  0  0  0
   -1.5000    0.0000    0.0000 C   0  0  0  0  0  0  0  0  0  0  0  0
   -0.7500   -1.2990    0.0000 C   0  0  0  0  0  0  0  0  0  0  0  0
   -2.2444   -1.4280    0.0000 C   0  0  0  0  0  0  0  0  0  0  0  0
   -1.2830   -2.5794    0.0000 C   0  0  0  0  0  0  0  0  0  0  0  0
   -1.7994   -3.9877    0.0000 C   0  0  0  0  0  0  0  0  0  0  0  0
   -3.2772   -4.2446    0.0000 C   0  0  0  0  0  0  0  0  0  0  0  0
   -4.2387   -3.0932    0.0000 C   0  0  0  0  0  0  0  0  0  0  0  0
   -3.7223   -1.6849    0.0000 C   0  0  0  0  0  0  0  0  0  0  0  0
  1  2  1  0
  2  3  1  0
  3  4  1  0
  4  5  1  0
  5  6  1  0
  6  7  1  0
  7  8  1  0
  8  9  1  0
  9 10  1  0
 10 11  1  0
 11 12  1  0
 12 13  1  0
 13 14  1  0
 14 15  1  0
 15 16  1  0
 16 17  1  0
 17 18  1  0
 18 19  1  0
 19 20  1  0
 20 21  1  0
 21 22  1  0
 22 23  1  0
 23 24  1  0
 24 25  1  0
 25 26  1  0
 26 27  1  0
 27 28  1  0
 28 29  1  0
 29 30  1  0
 30 31  1  0
 31 32  1  0
 32 33  1  0
 33 34  1  0
 34 35  1  0
 35 36  1  0
 36 37  1  0
 37 38  1  0
 38 39  1  0
 39 40  1  0
 40 41  1  0
 41 42  1  0
 42 43  1  0
 43 44  1  0
 44 45  1  0
 45 46  1  0
 46 47  1  0
 47 48  1  0
 48 49  1  0
 49 50  1  0
 50 51  1  0
 51 52  1  0
 52 53  1  0
 53 54  1  0
 54 55  1  0
 55 56  1  0
 56 57  1  0
 57 58  1  0
 58 59  1  0
 59 60  1  0
 60 61  1  0
 61 62  1  0
 62 63  1  0
 63 64  1  0
 64 65  1  0
 65 66  1  0
 66 67  1  0
 67 68  1  0
 68 69  1  0
 69 70  1  0
 70 71  1  0
 71 72  2  0
 72 73  1  0
 73 74  2  0
 74 75  1  0
 75 76  2  0
 76 77  1  0
 77 78  2  0
 78 79  1  0
 79 80  2  0
 80 81  1  0
 81 82  2  0
 82  2  1  0
 76 71  1  0
 82 77  1  0
M  END
>  <Title>  (1027) 
idABLOgen14

$$$$

     RDKit          2D

116117  0  0  0  0  0  0  0  0999 V2000
    3.4424    4.0317    0.0000 C   0  0  0  0  0  0  0  0  0  0  0  0
    4.2017    4.2745    0.0000 C   0  0  0  0  0  0  0  0  0  0  0  0
    3.7928    5.7177    0.0000 C   0  0  0  0  0  0  0  0  0  0  0  0
    3.4813    7.1850    0.0000 C   0  0  0  0  0  0  0  0  0  0  0  0
    3.2684    8.6698    0.0000 C   0  0  0  0  0  0  0  0  0  0  0  0
    3.1551   10.1655    0.0000 C   0  0  0  0  0  0  0  0  0  0  0  0
    3.1421   11.6655    0.0000 C   0  0  0  0  0  0  0  0  0  0  0  0
    3.2292   13.1629    0.0000 C   0  0  0  0  0  0  0  0  0  0  0  0
    3.4162   14.6512    0.0000 C   0  0  0  0  0  0  0  0  0  0  0  0
    3.7021   16.1237    0.0000 C   0  0  0  0  0  0  0  0  0  0  0  0
    4.0858   17.5738    0.0000 C   0  0  0  0  0  0  0  0  0  0  0  0
    4.5654   18.9951    0.0000 C   0  0  0  0  0  0  0  0  0  0  0  0
    5.1390   20.3811    0.0000 C   0  0  0  0  0  0  0  0  0  0  0  0
    5.8038   21.7257    0.0000 C   0  0  0  0  0  0  0  0  0  0  0  0
    6.5569   23.0229    0.0000 C   0  0  0  0  0  0  0  0  0  0  0  0
    7.3950   24.2670    0.0000 C   0  0  0  0  0  0  0  0  0  0  0  0
    8.3144   25.4522    0.0000 C   0  0  0  0  0  0  0  0  0  0  0  0
    9.3108   26.5734    0.0000 C   0  0  0  0  0  0  0  0  0  0  0  0
   10.3799   27.6256    0.0000 C   0  0  0  0  0  0  0  0  0  0  0  0
   11.5169   28.6040    0.0000 C   0  0  0  0  0  0  0  0  0  0  0  0
   12.7167   29.5042    0.0000 C   0  0  0  0  0  0  0  0  0  0  0  0
   13.9739   30.3223    0.0000 C   0  0  0  0  0  0  0  0  0  0  0  0
   15.2830   31.0547    0.0000 C   0  0  0  0  0  0  0  0  0  0  0  0
   16.6381   31.6979    0.0000 C   0  0  0  0  0  0  0  0  0  0  0  0
   18.0331   32.2492    0.0000 C   0  0  0  0  0  0  0  0  0  0  0  0
   19.4619   32.7061    0.0000 C   0  0  0  0  0  0  0  0  0  0  0  0
   20.9179   33.0665    0.0000 C   0  0  0  0  0  0  0  0  0  0  0  0
   22.3948   33.3289    0.0000 C   0  0  0  0  0  0  0  0  0  0  0  0
   23.8859   33.4920    0.0000 C   0  0  0  0  0  0  0  0  0  0  0  0
   25.3846   33.5552    0.0000 C   0  0  0  0  0  0  0  0  0  0  0  0
   26.8841   33.5182    0.0000 C   0  0  0  0  0  0  0  0  0  0  0  0
   28.3778   33.3811    0.0000 C   0  0  0  0  0  0  0  0  0  0  0  0
   29.8590   33.1445    0.0000 C   0  0  0  0  0  0  0  0  0  0  0  0
   31.3212   32.8095    0.0000 C   0  0  0  0  0  0  0  0  0  0  0  0
   32.7576   32.3776    0.0000 C   0  0  0  0  0  0  0  0  0  0  0  0
   34.1620   31.8507    0.0000 C   0  0  0  0  0  0  0  0  0  0  0  0
   35.5281   31.2312    0.0000 C   0  0  0  0  0  0  0  0  0  0  0  0
   36.8498   30.5218    0.0000 C   0  0  0  0  0  0  0  0  0  0  0  0
   38.1211   29.7257    0.0000 C   0  0  0  0  0  0  0  0  0  0  0  0
   39.3364   28.8465    0.0000 C   0  0  0  0  0  0  0  0  0  0  0  0
   40.4903   27.8881    0.0000 C   0  0  0  0  0  0  0  0  0  0  0  0
   41.5776   26.8547    0.0000 C   0  0  0  0  0  0  0  0  0  0  0  0
   42.5934   25.7511    0.0000 C   0  0  0  0  0  0  0  0  0  0  0  0
   43.5333   24.5820    0.0000 C   0  0  0  0  0  0  0  0  0  0  0  0
   44.3930   23.3528    0.0000 C   0  0  0  0  0  0  0  0  0  0  0  0
   45.1686   22.0689    0.0000 C   0  0  0  0  0  0  0  0  0  0  0  0
   45.8568   20.7361    0.0000 C   0  0  0  0  0  0  0  0  0  0  0  0
   46.4544   19.3603    0.0000 C   0  0  0  0  0  0  0  0  0  0  0  0
   46.9587   17.9476    0.0000 C   0  0  0  0  0  0  0  0  0  0  0  0
   47.3676   16.5044    0.0000 C   0  0  0  0  0  0  0  0  0  0  0  0
   47.6792   15.0372    0.0000 C   0  0  0  0  0  0  0  0  0  0  0  0
   47.8921   13.5523    0.0000 C   0  0  0  0  0  0  0  0  0  0  0  0
   48.0053   12.0566    0.0000 C   0  0  0  0  0  0  0  0  0  0  0  0
   48.0184   10.5567    0.0000 C   0  0  0  0  0  0  0  0  0  0  0  0
   47.9313    9.0592    0.0000 C   0  0  0  0  0  0  0  0  0  0  0  0
   47.7443    7.5709    0.0000 C   0  0  0  0  0  0  0  0  0  0  0  0
   47.4584    6.0984    0.0000 C   0  0  0  0  0  0  0  0  0  0  0  0
   47.0747    4.6483    0.0000 C   0  0  0  0  0  0  0  0  0  0  0  0
   46.5950    3.2271    0.0000 C   0  0  0  0  0  0  0  0  0  0  0  0
   46.0215    1.8410    0.0000 C   0  0  0  0  0  0  0  0  0  0  0  0
   45.3567    0.4964    0.0000 C   0  0  0  0  0  0  0  0  0  0  0  0
   44.6036   -0.8008    0.0000 C   0  0  0  0  0  0  0  0  0  0  0  0
   43.7654   -2.0448    0.0000 C   0  0  0  0  0  0  0  0  0  0  0  0
   42.8461   -3.2301    0.0000 C   0  0  0  0  0  0  0  0  0  0  0  0
   41.8497   -4.3513    0.0000 C   0  0  0  0  0  0  0  0  0  0  0  0
   40.7806   -5.4034    0.0000 C   0  0  0  0  0  0  0  0  0  0  0  0
   39.6436   -6.3818    0.0000 C   0  0  0  0  0  0  0  0  0  0  0  0
   38.4438   -7.2821    0.0000 C   0  0  0  0  0  0  0  0  0  0  0  0
   37.1865   -8.1002    0.0000 C   0  0  0  0  0  0  0  0  0  0  0  0
   35.8774   -8.8325    0.0000 C   0  0  0  0  0  0  0  0  0  0  0  0
   34.5224   -9.4758    0.0000 C   0  0  0  0  0  0  0  0  0  0  0  0
   33.1273  -10.0271    0.0000 C   0  0  0  0  0  0  0  0  0  0  0  0
   31.6986  -10.4839    0.0000 C   0  0  0  0  0  0  0  0  0  0  0  0
   30.2426  -10.8444    0.0000 C   0  0  0  0  0  0  0  0  0  0  0  0
   28.7657  -11.1068    0.0000 C   0  0  0  0  0  0  0  0  0  0  0  0
   27.2746  -11.2699    0.0000 C   0  0  0  0  0  0  0  0  0  0  0  0
   25.7759  -11.3331    0.0000 C   0  0  0  0  0  0  0  0  0  0  0  0
   24.2764  -11.2961    0.0000 C   0  0  0  0  0  0  0  0  0  0  0  0
   22.7827  -11.1589    0.0000 C   0  0  0  0  0  0  0  0  0  0  0  0
   21.3014  -10.9223    0.0000 C   0  0  0  0  0  0  0  0  0  0  0  0
   19.8393  -10.5873    0.0000 C   0  0  0  0  0  0  0  0  0  0  0  0
   18.4029  -10.1554    0.0000 C   0  0  0  0  0  0  0  0  0  0  0  0
   16.9984   -9.6286    0.0000 C   0  0  0  0  0  0  0  0  0  0  0  0
   15.6323   -9.0090    0.0000 C   0  0  0  0  0  0  0  0  0  0  0  0
   14.3107   -8.2997    0.0000 C   0  0  0  0  0  0  0  0  0  0  0  0
   13.0394   -7.5036    0.0000 C   0  0  0  0  0  0  0  0  0  0  0  0
   11.8240   -6.6244    0.0000 C   0  0  0  0  0  0  0  0  0  0  0  0
   10.6702   -5.6660    0.0000 C   0  0  0  0  0  0  0  0  0  0  0  0
    9.5829   -4.6326    0.0000 C   0  0  0  0  0  0  0  0  0  0  0  0
    8.5670   -3.5290    0.0000 C   0  0  0  0  0  0  0  0  0  0  0  0
    7.6272   -2.3599    0.0000 C   0  0  0  0  0  0  0  0  0  0  0  0
    6.7675   -1.1307    0.0000 C   0  0  0  0  0  0  0  0  0  0  0  0
    5.9919    0.1532    0.0000 C   0  0  0  0  0  0  0  0  0  0  0  0
    5.3037    1.4860    0.0000 C   0  0  0  0  0  0  0  0  0  0  0  0
    4.8080   -0.0000    0.0000 C   0  0  0  0  0  0  0  0  0  0  0  0
    4.6297   -1.2972    0.0000 C   0  0  0  0  0  0  0  0  0  0  0  0
    4.1080   -2.4981    0.0000 C   0  0  0  0  0  0  0  0  0  0  0  0
    3.2817   -3.5138    0.0000 C   0  0  0  0  0  0  0  0  0  0  0  0
    2.2120   -4.2689    0.0000 C   0  0  0  0  0  0  0  0  0  0  0  0
    0.9782   -4.7074    0.0000 C   0  0  0  0  0  0  0  0  0  0  0  0
   -0.3281   -4.7967    0.0000 C   0  0  0  0  0  0  0  0  0  0  0  0
   -1.6101   -4.5303    0.0000 C   0  0  0  0  0  0  0  0  0  0  0  0
   -2.7727   -3.9280    0.0000 C   0  0  0  0  0  0  0  0  0  0  0  0
   -3.7296   -3.0342    0.0000 C   0  0  0  0  0  0  0  0  0  0  0  0
   -4.4099   -1.9155    0.0000 C   0  0  0  0  0  0  0  0  0  0  0  0
   -4.7632   -0.6547    0.0000 C   0  0  0  0  0  0  0  0  0  0  0  0
   -4.7632    0.6547    0.0000 C   0  0  0  0  0  0  0  0  0  0  0  0
   -4.4099    1.9155    0.0000 C   0  0  0  0  0  0  0  0  0  0  0  0
   -3.7296    3.0342    0.0000 C   0  0  0  0  0  0  0  0  0  0  0  0
   -2.7727    3.9280    0.0000 C   0  0  0  0  0  0  0  0  0  0  0  0
   -1.6101    4.5303    0.0000 C   0  0  0  0  0  0  0  0  0  0  0  0
   -0.3281    4.7967    0.0000 C   0  0  0  0  0  0  0  0  0  0  0  0
    0.9782    4.7074    0.0000 C   0  0  0  0  0  0  0  0  0  0  0  0
    2.2120    4.2689    0.0000 C   0  0  0  0  0  0  0  0  0  0  0  0
    3.2817    3.5138    0.0000 C   0  0  0  0  0  0  0  0  0  0  0  0
    4.7061    2.8618    0.0000 C   0  0  0  0  0  0  0  0  0  0  0  0
  1  2  1  0
  2  3  1  0
  3  4  1  0
  4  5  1  0
  5  6  1  0
  6  7  1  0
  7  8  1  0
  8  9  1  0
  9 10  1  0
 10 11  1  0
 11 12  1  0
 12 13  1  0
 13 14  1  0
 14 15  1  0
 15 16  1  0
 16 17  1  0
 17 18  1  0
 18 19  1  0
 19 20  1  0
 20 21  1  0
 21 22  1  0
 22 23  1  0
 23 24  1  0
 24 25  1  0
 25 26  1  0
 26 27  1  0
 27 28  1  0
 28 29  1  0
 29 30  1  0
 30 31  1  0
 31 32  1  0
 32 33  1  0
 33 34  1  0
 34 35  1  0
 35 36  1  0
 36 37  1  0
 37 38  1  0
 38 39  1  0
 39 40  1  0
 40 41  1  0
 41 42  1  0
 42 43  1  0
 43 44  1  0
 44 45  1  0
 45 46  1  0
 46 47  1  0
 47 48  1  0
 48 49  1  0
 49 50  1  0
 50 51  1  0
 51 52  1  0
 52 53  1  0
 53 54  1  0
 54 55  1  0
 55 56  1  0
 56 57  1  0
 57 58  1  0
 58 59  1  0
 59 60  1  0
 60 61  1  0
 61 62  1  0
 62 63  1  0
 63 64  1  0
 64 65  1  0
 65 66  1  0
 66 67  1  0
 67 68  1  0
 68 69  1  0
 69 70  1  0
 70 71  1  0
 71 72  1  0
 72 73  1  0
 73 74  1  0
 74 75  1  0
 75 76  1  0
 76 77  1  0
 77 78  1  0
 78 79  1  0
 79 80  1  0
 80 81  1  0
 81 82  1  0
 82 83  1  0
 83 84  1  0
 84 85  1  0
 85 86  1  0
 86 87  1  0
 87 88  1  0
 88 89  1  0
 89 90  1  0
 90 91  1  0
 91 92  1  0
 92 93  1  0
 93 94  1  0
 94 95  1  0
 95 96  1  0
 96 97  1  0
 97 98  1  0
 98 99  1  0
 99100  1  0
100101  1  0
101102  1  0
102103  1  0
103104  1  0
104105  1  0
105106  1  0
106107  1  0
107108  1  0
108109  1  0
109110  1  0
110111  1  0
111112  2  0
112113  1  0
113114  2  0
114115  1  0
115116  2  0
116  2  1  0
116 94  1  0
M  END
>  <Title>  (1028) 
idABLPgen14

$$$$

     RDKit          2D

 37 41  0  0  0  0  0  0  0  0999 V2000
   10.0051   -0.5013    0.0000 C   0  0  0  0  0  0  0  0  0  0  0  0
    8.5134   -0.6581    0.0000 C   0  0  0  0  0  0  0  0  0  0  0  0
    7.7634   -1.9571    0.0000 C   0  0  0  0  0  0  0  0  0  0  0  0
    6.2961   -1.6453    0.0000 C   0  0  0  0  0  0  0  0  0  0  0  0
    5.1814   -2.6490    0.0000 N   0  0  0  0  0  0  0  0  0  0  0  0
    5.4933   -4.1162    0.0000 C   0  0  0  0  0  0  0  0  0  0  0  0
    6.9199   -4.5797    0.0000 O   0  0  0  0  0  0  0  0  0  0  0  0
    4.3786   -5.1199    0.0000 N   0  0  0  0  0  0  0  0  0  0  0  0
    4.6904   -6.5871    0.0000 C   0  0  0  0  0  0  0  0  0  0  0  0
    6.0607   -7.1972    0.0000 N   0  0  0  0  0  0  0  0  0  0  0  0
    5.9040   -8.6890    0.0000 N   0  0  0  0  0  0  0  0  0  0  0  0
    4.4367   -9.0009    0.0000 N   0  0  0  0  0  0  0  0  0  0  0  0
    3.6867   -7.7018    0.0000 N   0  0  0  0  0  0  0  0  0  0  0  0
    2.1950   -7.5450    0.0000 C   0  0  0  0  0  0  0  0  0  0  0  0
    1.4450   -6.2460    0.0000 C   0  0  0  0  0  0  0  0  0  0  0  0
   -0.0223   -6.5579    0.0000 C   0  0  0  0  0  0  0  0  0  0  0  0
   -0.1791   -8.0497    0.0000 C   0  0  0  0  0  0  0  0  0  0  0  0
   -1.4781   -8.7997    0.0000 O   0  0  0  0  0  0  0  0  0  0  0  0
   -2.7771   -8.0497    0.0000 C   0  0  0  0  0  0  0  0  0  0  0  0
   -2.7771   -6.5497    0.0000 O   0  0  0  0  0  0  0  0  0  0  0  0
   -4.0762   -8.7997    0.0000 N   0  0  0  0  0  0  0  0  0  0  0  0
   -5.3752   -8.0497    0.0000 C   0  0  0  0  0  0  0  0  0  0  0  0
   -6.6743   -8.7997    0.0000 N   0  0  0  0  0  0  0  0  0  0  0  0
   -7.9733   -8.0497    0.0000 N   0  0  0  0  0  0  0  0  0  0  0  0
   -7.9733   -6.5497    0.0000 N   0  0  0  0  0  0  0  0  0  0  0  0
   -6.6743   -5.7997    0.0000 N   0  0  0  0  0  0  0  0  0  0  0  0
   -5.3752   -6.5497    0.0000 N   0  0  0  0  0  0  0  0  0  0  0  0
    1.1913   -8.6598    0.0000 C   0  0  0  0  0  0  0  0  0  0  0  0
    1.5031  -10.1270    0.0000 O   0  0  0  0  0  0  0  0  0  0  0  0
    6.1393   -0.1535    0.0000 C   0  0  0  0  0  0  0  0  0  0  0  0
    4.9258    0.7282    0.0000 C   0  0  0  0  0  0  0  0  0  0  0  0
    5.0826    2.2200    0.0000 C   0  0  0  0  0  0  0  0  0  0  0  0
    6.4529    2.8301    0.0000 C   0  0  0  0  0  0  0  0  0  0  0  0
    6.6097    4.3218    0.0000 C   0  0  0  0  0  0  0  0  0  0  0  0
    6.7665    5.8136    0.0000 N   0  0  0  0  0  0  0  0  0  0  0  0
    7.6664    1.9484    0.0000 C   0  0  0  0  0  0  0  0  0  0  0  0
    7.5097    0.4566    0.0000 C   0  0  0  0  0  0  0  0  0  0  0  0
  1  2  1  0
  2  3  2  0
  3  4  1  0
  4  5  1  0
  5  6  1  0
  6  7  2  0
  6  8  1  0
  8  9  1  0
  9 10  2  0
 10 11  1  0
 11 12  2  0
 12 13  1  0
 13 14  1  0
 14 15  2  0
 15 16  1  0
 16 17  2  0
 17 18  1  0
 18 19  1  0
 19 20  2  0
 19 21  1  0
 21 22  1  0
 22 23  2  0
 23 24  1  0
 24 25  2  0
 25 26  1  0
 26 27  2  0
 17 28  1  0
 28 29  2  0
  4 30  1  0
 30 31  2  0
 31 32  1  0
 32 33  2  0
 33 34  1  0
 34 35  3  0
 33 36  1  0
 36 37  2  0
 37  2  1  0
 13  9  1  0
 28 14  1  0
 37 30  1  0
 27 22  1  0
M  END
>  <Title>  (1029) 
idABLQgen14

$$$$

     RDKit          2D

 35 39  0  0  0  0  0  0  0  0999 V2000
   -3.0000   -2.5981    0.0000 C   0  0  0  0  0  0  0  0  0  0  0  0
   -1.5000   -2.5981    0.0000 C   0  0  0  0  0  0  0  0  0  0  0  0
   -0.7500   -3.8971    0.0000 C   0  0  0  0  0  0  0  0  0  0  0  0
    0.7500   -3.8971    0.0000 C   0  0  0  0  0  0  0  0  0  0  0  0
    1.5000   -2.5981    0.0000 C   0  0  0  0  0  0  0  0  0  0  0  0
    3.0000   -2.5981    0.0000 C   0  0  0  0  0  0  0  0  0  0  0  0
    3.7500   -1.2990    0.0000 O   0  0  0  0  0  0  0  0  0  0  0  0
    3.7500   -3.8971    0.0000 N   0  0  0  0  0  0  0  0  0  0  0  0
    5.2500   -3.8971    0.0000 C   0  0  0  0  0  0  0  0  0  0  0  0
    6.1317   -2.6836    0.0000 N   0  0  0  0  0  0  0  0  0  0  0  0
    7.5583   -3.1471    0.0000 N   0  0  0  0  0  0  0  0  0  0  0  0
    7.5583   -4.6471    0.0000 N   0  0  0  0  0  0  0  0  0  0  0  0
    6.1317   -5.1106    0.0000 N   0  0  0  0  0  0  0  0  0  0  0  0
    5.6682   -6.5372    0.0000 N   0  0  0  0  0  0  0  0  0  0  0  0
    6.5498   -7.7508    0.0000 C   0  0  0  0  0  0  0  0  0  0  0  0
    5.6682   -8.9643    0.0000 C   0  0  0  0  0  0  0  0  0  0  0  0
    4.2416   -8.5008    0.0000 N   0  0  0  0  0  0  0  0  0  0  0  0
    3.0280   -9.3824    0.0000 C   0  0  0  0  0  0  0  0  0  0  0  0
    3.1848  -10.8742    0.0000 O   0  0  0  0  0  0  0  0  0  0  0  0
    1.6577   -8.7723    0.0000 N   0  0  0  0  0  0  0  0  0  0  0  0
    0.4442   -9.6540    0.0000 C   0  0  0  0  0  0  0  0  0  0  0  0
   -0.9261   -9.0439    0.0000 N   0  0  0  0  0  0  0  0  0  0  0  0
   -2.1396   -9.9256    0.0000 N   0  0  0  0  0  0  0  0  0  0  0  0
   -1.9829  -11.4174    0.0000 N   0  0  0  0  0  0  0  0  0  0  0  0
   -0.6125  -12.0275    0.0000 N   0  0  0  0  0  0  0  0  0  0  0  0
    0.6010  -11.1458    0.0000 N   0  0  0  0  0  0  0  0  0  0  0  0
    4.2416   -7.0008    0.0000 C   0  0  0  0  0  0  0  0  0  0  0  0
    3.0280   -6.1191    0.0000 O   0  0  0  0  0  0  0  0  0  0  0  0
    0.7500   -1.2990    0.0000 C   0  0  0  0  0  0  0  0  0  0  0  0
    1.5000    0.0000    0.0000 C   0  0  0  0  0  0  0  0  0  0  0  0
    0.7500    1.2990    0.0000 C   0  0  0  0  0  0  0  0  0  0  0  0
   -0.7500    1.2990    0.0000 C   0  0  0  0  0  0  0  0  0  0  0  0
   -1.5000    2.5981    0.0000 O   0  0  0  0  0  0  0  0  0  0  0  0
   -1.5000    0.0000    0.0000 C   0  0  0  0  0  0  0  0  0  0  0  0
   -0.7500   -1.2990    0.0000 C   0  0  0  0  0  0  0  0  0  0  0  0
  1  2  1  0
  2  3  1  0
  3  4  1  0
  4  5  1  0
  5  6  1  0
  6  7  2  0
  6  8  1  0
  8  9  1  0
  9 10  2  0
 10 11  1  0
 11 12  2  0
 12 13  1  0
 13 14  1  0
 14 15  1  0
 15 16  1  0
 16 17  1  0
 17 18  1  0
 18 19  2  0
 18 20  1  0
 20 21  1  0
 21 22  2  0
 22 23  1  0
 23 24  2  0
 24 25  1  0
 25 26  2  0
 17 27  1  0
 27 28  2  0
  5 29  1  0
 29 30  2  0
 30 31  1  0
 31 32  2  0
 32 33  1  0
 32 34  1  0
 34 35  2  0
 35  2  1  0
 13  9  1  0
 27 14  1  0
 35 29  1  0
 26 21  1  0
M  END
>  <Title>  (1030) 
idABLRgen14

$$$$

     RDKit          2D

 18 18  0  0  0  0  0  0  0  0999 V2000
   12.7500   -1.2990    0.0000 C   0  0  0  0  0  0  0  0  0  0  0  0
   12.0000   -2.5981    0.0000 C   0  0  0  0  0  0  0  0  0  0  0  0
   10.5000   -2.5981    0.0000 C   0  0  0  0  0  0  0  0  0  0  0  0
    9.7500   -3.8971    0.0000 C   0  0  0  0  0  0  0  0  0  0  0  0
   10.5000   -5.1962    0.0000 C   0  0  0  0  0  0  0  0  0  0  0  0
    8.2500   -3.8971    0.0000 N   0  0  0  0  0  0  0  0  0  0  0  0
    7.5000   -2.5981    0.0000 C   0  0  0  0  0  0  0  0  0  0  0  0
    8.2500   -1.2990    0.0000 O   0  0  0  0  0  0  0  0  0  0  0  0
    6.0000   -2.5981    0.0000 N   0  0  0  0  0  0  0  0  0  0  0  0
    5.2500   -1.2990    0.0000 C   0  0  0  0  0  0  0  0  0  0  0  0
    3.7500   -1.2990    0.0000 C   0  0  0  0  0  0  0  0  0  0  0  0
    3.0000    0.0000    0.0000 N   0  0  0  0  0  0  0  0  0  0  0  0
    1.5000    0.0000    0.0000 C   0  0  0  0  0  0  0  0  0  0  0  0
    0.7500   -1.2990    0.0000 C   0  0  0  0  0  0  0  0  0  0  0  0
   -0.7500   -1.2990    0.0000 C   0  0  0  0  0  0  0  0  0  0  0  0
   -1.5000    0.0000    0.0000 C   0  0  0  0  0  0  0  0  0  0  0  0
   -0.7500    1.2990    0.0000 C   0  0  0  0  0  0  0  0  0  0  0  0
    0.7500    1.2990    0.0000 C   0  0  0  0  0  0  0  0  0  0  0  0
  1  2  1  0
  2  3  1  0
  3  4  1  0
  4  5  1  0
  4  6  1  0
  6  7  1  0
  7  8  2  0
  7  9  1  0
  9 10  1  0
 10 11  1  0
 11 12  1  0
 12 13  1  0
 13 14  2  0
 14 15  1  0
 15 16  2  0
 16 17  1  0
 17 18  2  0
 18 13  1  0
M  END
>  <Title>  (1031) 
idABLSgen14

$$$$

     RDKit          2D

110111  0  0  0  0  0  0  0  0999 V2000
   -2.1488   -1.0903    0.0000 C   0  0  0  0  0  0  0  0  0  0  0  0
   -2.4838    0.3718    0.0000 C   0  0  0  0  0  0  0  0  0  0  0  0
   -3.9552    0.0803    0.0000 C   0  0  0  0  0  0  0  0  0  0  0  0
   -5.4413   -0.1236    0.0000 C   0  0  0  0  0  0  0  0  0  0  0  0
   -6.9368   -0.2391    0.0000 C   0  0  0  0  0  0  0  0  0  0  0  0
   -8.4366   -0.2658    0.0000 C   0  0  0  0  0  0  0  0  0  0  0  0
   -9.9353   -0.2035    0.0000 C   0  0  0  0  0  0  0  0  0  0  0  0
  -11.4277   -0.0526    0.0000 C   0  0  0  0  0  0  0  0  0  0  0  0
  -12.9085    0.1864    0.0000 C   0  0  0  0  0  0  0  0  0  0  0  0
  -14.3726    0.5127    0.0000 C   0  0  0  0  0  0  0  0  0  0  0  0
  -15.8148    0.9253    0.0000 C   0  0  0  0  0  0  0  0  0  0  0  0
  -17.2300    1.4225    0.0000 C   0  0  0  0  0  0  0  0  0  0  0  0
  -18.6132    2.0027    0.0000 C   0  0  0  0  0  0  0  0  0  0  0  0
  -19.9597    2.6638    0.0000 C   0  0  0  0  0  0  0  0  0  0  0  0
  -21.2646    3.4035    0.0000 C   0  0  0  0  0  0  0  0  0  0  0  0
  -22.5234    4.2192    0.0000 C   0  0  0  0  0  0  0  0  0  0  0  0
  -23.7317    5.1080    0.0000 C   0  0  0  0  0  0  0  0  0  0  0  0
  -24.8852    6.0669    0.0000 C   0  0  0  0  0  0  0  0  0  0  0  0
  -25.9799    7.0924    0.0000 C   0  0  0  0  0  0  0  0  0  0  0  0
  -27.0119    8.1810    0.0000 C   0  0  0  0  0  0  0  0  0  0  0  0
  -27.9776    9.3288    0.0000 C   0  0  0  0  0  0  0  0  0  0  0  0
  -28.8736   10.5318    0.0000 C   0  0  0  0  0  0  0  0  0  0  0  0
  -29.6967   11.7857    0.0000 C   0  0  0  0  0  0  0  0  0  0  0  0
  -30.4441   13.0863    0.0000 C   0  0  0  0  0  0  0  0  0  0  0  0
  -31.1132   14.4288    0.0000 C   0  0  0  0  0  0  0  0  0  0  0  0
  -31.7016   15.8086    0.0000 C   0  0  0  0  0  0  0  0  0  0  0  0
  -32.2072   17.2208    0.0000 C   0  0  0  0  0  0  0  0  0  0  0  0
  -32.6282   18.6605    0.0000 C   0  0  0  0  0  0  0  0  0  0  0  0
  -32.9633   20.1226    0.0000 C   0  0  0  0  0  0  0  0  0  0  0  0
  -33.2111   21.6020    0.0000 C   0  0  0  0  0  0  0  0  0  0  0  0
  -33.3708   23.0934    0.0000 C   0  0  0  0  0  0  0  0  0  0  0  0
  -33.4419   24.5918    0.0000 C   0  0  0  0  0  0  0  0  0  0  0  0
  -33.4241   26.0917    0.0000 C   0  0  0  0  0  0  0  0  0  0  0  0
  -33.3175   27.5879    0.0000 C   0  0  0  0  0  0  0  0  0  0  0  0
  -33.1225   29.0751    0.0000 C   0  0  0  0  0  0  0  0  0  0  0  0
  -32.8397   30.5482    0.0000 C   0  0  0  0  0  0  0  0  0  0  0  0
  -32.4701   32.0020    0.0000 C   0  0  0  0  0  0  0  0  0  0  0  0
  -32.0150   33.4313    0.0000 C   0  0  0  0  0  0  0  0  0  0  0  0
  -31.4761   34.8311    0.0000 C   0  0  0  0  0  0  0  0  0  0  0  0
  -30.8552   36.1966    0.0000 C   0  0  0  0  0  0  0  0  0  0  0  0
  -30.1544   37.5229    0.0000 C   0  0  0  0  0  0  0  0  0  0  0  0
  -29.3764   38.8053    0.0000 C   0  0  0  0  0  0  0  0  0  0  0  0
  -28.5237   40.0394    0.0000 C   0  0  0  0  0  0  0  0  0  0  0  0
  -27.5995   41.2208    0.0000 C   0  0  0  0  0  0  0  0  0  0  0  0
  -26.6068   42.3454    0.0000 C   0  0  0  0  0  0  0  0  0  0  0  0
  -25.5493   43.4092    0.0000 C   0  0  0  0  0  0  0  0  0  0  0  0
  -24.4306   44.4084    0.0000 C   0  0  0  0  0  0  0  0  0  0  0  0
  -23.2547   45.3397    0.0000 C   0  0  0  0  0  0  0  0  0  0  0  0
  -22.0257   46.1997    0.0000 C   0  0  0  0  0  0  0  0  0  0  0  0
  -20.7479   46.9853    0.0000 C   0  0  0  0  0  0  0  0  0  0  0  0
  -19.4258   47.6939    0.0000 C   0  0  0  0  0  0  0  0  0  0  0  0
  -18.0641   48.3229    0.0000 C   0  0  0  0  0  0  0  0  0  0  0  0
  -16.6675   48.8701    0.0000 C   0  0  0  0  0  0  0  0  0  0  0  0
  -15.2409   49.3336    0.0000 C   0  0  0  0  0  0  0  0  0  0  0  0
  -13.7893   49.7118    0.0000 C   0  0  0  0  0  0  0  0  0  0  0  0
  -12.3179   50.0034    0.0000 C   0  0  0  0  0  0  0  0  0  0  0  0
  -10.8319   50.2072    0.0000 C   0  0  0  0  0  0  0  0  0  0  0  0
   -9.3363   50.3227    0.0000 C   0  0  0  0  0  0  0  0  0  0  0  0
   -7.8365   50.3494    0.0000 C   0  0  0  0  0  0  0  0  0  0  0  0
   -6.3378   50.2871    0.0000 C   0  0  0  0  0  0  0  0  0  0  0  0
   -4.8454   50.1363    0.0000 C   0  0  0  0  0  0  0  0  0  0  0  0
   -3.3646   49.8972    0.0000 C   0  0  0  0  0  0  0  0  0  0  0  0
   -1.9005   49.5709    0.0000 C   0  0  0  0  0  0  0  0  0  0  0  0
   -0.4584   49.1584    0.0000 C   0  0  0  0  0  0  0  0  0  0  0  0
    0.9568   48.6611    0.0000 C   0  0  0  0  0  0  0  0  0  0  0  0
    2.3401   48.0810    0.0000 C   0  0  0  0  0  0  0  0  0  0  0  0
    3.6865   47.4199    0.0000 C   0  0  0  0  0  0  0  0  0  0  0  0
    4.9915   46.6801    0.0000 C   0  0  0  0  0  0  0  0  0  0  0  0
    6.2503   45.8644    0.0000 C   0  0  0  0  0  0  0  0  0  0  0  0
    7.4585   44.9756    0.0000 C   0  0  0  0  0  0  0  0  0  0  0  0
    8.6120   44.0167    0.0000 C   0  0  0  0  0  0  0  0  0  0  0  0
    9.7067   42.9912    0.0000 C   0  0  0  0  0  0  0  0  0  0  0  0
   10.7387   41.9026    0.0000 C   0  0  0  0  0  0  0  0  0  0  0  0
   11.7044   40.7548    0.0000 C   0  0  0  0  0  0  0  0  0  0  0  0
   12.6004   39.5518    0.0000 C   0  0  0  0  0  0  0  0  0  0  0  0
   13.4236   38.2979    0.0000 C   0  0  0  0  0  0  0  0  0  0  0  0
   14.1710   36.9973    0.0000 C   0  0  0  0  0  0  0  0  0  0  0  0
   14.8401   35.6548    0.0000 C   0  0  0  0  0  0  0  0  0  0  0  0
   15.4284   34.2750    0.0000 C   0  0  0  0  0  0  0  0  0  0  0  0
   15.9340   32.8628    0.0000 C   0  0  0  0  0  0  0  0  0  0  0  0
   16.3551   31.4231    0.0000 C   0  0  0  0  0  0  0  0  0  0  0  0
   16.6901   29.9610    0.0000 C   0  0  0  0  0  0  0  0  0  0  0  0
   16.9379   28.4816    0.0000 C   0  0  0  0  0  0  0  0  0  0  0  0
   17.0977   26.9902    0.0000 C   0  0  0  0  0  0  0  0  0  0  0  0
   17.1688   25.4918    0.0000 C   0  0  0  0  0  0  0  0  0  0  0  0
   17.1510   23.9920    0.0000 C   0  0  0  0  0  0  0  0  0  0  0  0
   17.0444   22.4957    0.0000 C   0  0  0  0  0  0  0  0  0  0  0  0
   16.8493   21.0085    0.0000 C   0  0  0  0  0  0  0  0  0  0  0  0
   16.5665   19.5354    0.0000 C   0  0  0  0  0  0  0  0  0  0  0  0
   16.1969   18.0816    0.0000 C   0  0  0  0  0  0  0  0  0  0  0  0
   15.7419   16.6523    0.0000 C   0  0  0  0  0  0  0  0  0  0  0  0
   15.2029   15.2525    0.0000 C   0  0  0  0  0  0  0  0  0  0  0  0
   14.5820   13.8870    0.0000 C   0  0  0  0  0  0  0  0  0  0  0  0
   13.8813   12.5608    0.0000 C   0  0  0  0  0  0  0  0  0  0  0  0
   13.1032   11.2783    0.0000 C   0  0  0  0  0  0  0  0  0  0  0  0
   12.2506   10.0442    0.0000 C   0  0  0  0  0  0  0  0  0  0  0  0
   11.3263    8.8628    0.0000 C   0  0  0  0  0  0  0  0  0  0  0  0
   10.3337    7.7383    0.0000 C   0  0  0  0  0  0  0  0  0  0  0  0
    9.2762    6.6745    0.0000 C   0  0  0  0  0  0  0  0  0  0  0  0
    8.1575    5.6752    0.0000 C   0  0  0  0  0  0  0  0  0  0  0  0
    6.9816    4.7439    0.0000 C   0  0  0  0  0  0  0  0  0  0  0  0
    5.7526    3.8840    0.0000 C   0  0  0  0  0  0  0  0  0  0  0  0
    4.4748    3.0983    0.0000 C   0  0  0  0  0  0  0  0  0  0  0  0
    3.1527    2.3897    0.0000 C   0  0  0  0  0  0  0  0  0  0  0  0
    1.7909    1.7607    0.0000 C   0  0  0  0  0  0  0  0  0  0  0  0
    0.3943    1.2135    0.0000 C   0  0  0  0  0  0  0  0  0  0  0  0
    1.2760    0.0000    0.0000 C   0  0  0  0  0  0  0  0  0  0  0  0
    0.3943   -1.2135    0.0000 C   0  0  0  0  0  0  0  0  0  0  0  0
   -1.0323   -0.7500    0.0000 C   0  0  0  0  0  0  0  0  0  0  0  0
   -1.0323    0.7500    0.0000 C   0  0  0  0  0  0  0  0  0  0  0  0
  1  2  1  0
  2  3  1  0
  3  4  1  0
  4  5  1  0
  5  6  1  0
  6  7  1  0
  7  8  1  0
  8  9  1  0
  9 10  1  0
 10 11  1  0
 11 12  1  0
 12 13  1  0
 13 14  1  0
 14 15  1  0
 15 16  1  0
 16 17  1  0
 17 18  1  0
 18 19  1  0
 19 20  1  0
 20 21  1  0
 21 22  1  0
 22 23  1  0
 23 24  1  0
 24 25  1  0
 25 26  1  0
 26 27  1  0
 27 28  1  0
 28 29  1  0
 29 30  1  0
 30 31  1  0
 31 32  1  0
 32 33  1  0
 33 34  1  0
 34 35  1  0
 35 36  1  0
 36 37  1  0
 37 38  1  0
 38 39  1  0
 39 40  1  0
 40 41  1  0
 41 42  1  0
 42 43  1  0
 43 44  1  0
 44 45  1  0
 45 46  1  0
 46 47  1  0
 47 48  1  0
 48 49  1  0
 49 50  1  0
 50 51  1  0
 51 52  1  0
 52 53  1  0
 53 54  1  0
 54 55  1  0
 55 56  1  0
 56 57  1  0
 57 58  1  0
 58 59  1  0
 59 60  1  0
 60 61  1  0
 61 62  1  0
 62 63  1  0
 63 64  1  0
 64 65  1  0
 65 66  1  0
 66 67  1  0
 67 68  1  0
 68 69  1  0
 69 70  1  0
 70 71  1  0
 71 72  1  0
 72 73  1  0
 73 74  1  0
 74 75  1  0
 75 76  1  0
 76 77  1  0
 77 78  1  0
 78 79  1  0
 79 80  1  0
 80 81  1  0
 81 82  1  0
 82 83  1  0
 83 84  1  0
 84 85  1  0
 85 86  1  0
 86 87  1  0
 87 88  1  0
 88 89  1  0
 89 90  1  0
 90 91  1  0
 91 92  1  0
 92 93  1  0
 93 94  1  0
 94 95  1  0
 95 96  1  0
 96 97  1  0
 97 98  1  0
 98 99  1  0
 99100  1  0
100101  1  0
101102  2  0
102103  1  0
103104  2  0
104105  1  0
105106  2  0
106107  1  0
107108  2  0
108109  1  0
109110  2  0
110  2  1  0
110106  1  0
M  END
>  <Title>  (1032) 
idABLTgen14

$$$$

     RDKit          2D

 27 29  0  0  0  0  0  0  0  0999 V2000
    3.4598   -0.0000    0.0000 C   0  0  0  0  0  0  0  0  0  0  0  0
    1.9598    0.0000    0.0000 C   0  0  0  0  0  0  0  0  0  0  0  0
    1.3858   -1.3858    0.0000 C   0  0  0  0  0  0  0  0  0  0  0  0
   -0.0000   -1.9598    0.0000 C   0  0  0  0  0  0  0  0  0  0  0  0
   -0.0000   -3.4598    0.0000 C   0  0  0  0  0  0  0  0  0  0  0  0
    1.2990   -4.2098    0.0000 O   0  0  0  0  0  0  0  0  0  0  0  0
   -1.2990   -4.2098    0.0000 N   0  0  0  0  0  0  0  0  0  0  0  0
   -1.2990   -5.7098    0.0000 C   0  0  0  0  0  0  0  0  0  0  0  0
   -0.0855   -6.5915    0.0000 N   0  0  0  0  0  0  0  0  0  0  0  0
   -0.5490   -8.0181    0.0000 N   0  0  0  0  0  0  0  0  0  0  0  0
   -2.0490   -8.0181    0.0000 N   0  0  0  0  0  0  0  0  0  0  0  0
   -2.5126   -6.5915    0.0000 N   0  0  0  0  0  0  0  0  0  0  0  0
   -3.9391   -6.1280    0.0000 C   0  0  0  0  0  0  0  0  0  0  0  0
   -4.2510   -4.6608    0.0000 C   0  0  0  0  0  0  0  0  0  0  0  0
   -5.6776   -4.1972    0.0000 C   0  0  0  0  0  0  0  0  0  0  0  0
   -6.7923   -5.2009    0.0000 C   0  0  0  0  0  0  0  0  0  0  0  0
   -8.2189   -4.7374    0.0000 O   0  0  0  0  0  0  0  0  0  0  0  0
   -6.4805   -6.6682    0.0000 C   0  0  0  0  0  0  0  0  0  0  0  0
   -5.0539   -7.1317    0.0000 C   0  0  0  0  0  0  0  0  0  0  0  0
   -1.3858   -1.3858    0.0000 C   0  0  0  0  0  0  0  0  0  0  0  0
   -2.4465   -2.4465    0.0000 O   0  0  0  0  0  0  0  0  0  0  0  0
   -1.9598    0.0000    0.0000 O   0  0  0  0  0  0  0  0  0  0  0  0
   -1.3858    1.3858    0.0000 C   0  0  0  0  0  0  0  0  0  0  0  0
   -2.4465    2.4465    0.0000 O   0  0  0  0  0  0  0  0  0  0  0  0
    0.0000    1.9598    0.0000 N   0  0  0  0  0  0  0  0  0  0  0  0
    1.3858    1.3858    0.0000 C   0  0  0  0  0  0  0  0  0  0  0  0
    2.4465    2.4465    0.0000 O   0  0  0  0  0  0  0  0  0  0  0  0
  1  2  1  0
  2  3  1  0
  3  4  2  0
  4  5  1  0
  5  6  2  0
  5  7  1  0
  7  8  1  0
  8  9  2  0
  9 10  1  0
 10 11  2  0
 11 12  1  0
 12 13  1  0
 13 14  2  0
 14 15  1  0
 15 16  2  0
 16 17  1  0
 16 18  1  0
 18 19  2  0
  4 20  1  0
 20 21  2  0
 20 22  1  0
 22 23  1  0
 23 24  2  0
 23 25  1  0
 25 26  1  0
 26 27  2  0
 26  2  1  0
 12  8  1  0
 19 13  1  0
M  END
>  <Title>  (1033) 
idABLUgen14

$$$$

     RDKit          2D

 40 45  0  0  0  0  0  0  0  0999 V2000
   -1.3240   -6.3062    0.0000 C   0  0  0  0  0  0  0  0  0  0  0  0
   -0.7500   -4.9204    0.0000 C   0  0  0  0  0  0  0  0  0  0  0  0
    0.7500   -4.9204    0.0000 C   0  0  0  0  0  0  0  0  0  0  0  0
    1.8107   -3.8597    0.0000 C   0  0  0  0  0  0  0  0  0  0  0  0
    1.8107   -2.3597    0.0000 C   0  0  0  0  0  0  0  0  0  0  0  0
    3.1965   -1.7857    0.0000 C   0  0  0  0  0  0  0  0  0  0  0  0
    3.3923   -0.2985    0.0000 O   0  0  0  0  0  0  0  0  0  0  0  0
    4.3865   -2.6988    0.0000 N   0  0  0  0  0  0  0  0  0  0  0  0
    5.7723   -2.1248    0.0000 C   0  0  0  0  0  0  0  0  0  0  0  0
    6.1225   -0.6662    0.0000 N   0  0  0  0  0  0  0  0  0  0  0  0
    7.6179   -0.5485    0.0000 N   0  0  0  0  0  0  0  0  0  0  0  0
    8.1919   -1.9344    0.0000 N   0  0  0  0  0  0  0  0  0  0  0  0
    7.0513   -2.9085    0.0000 N   0  0  0  0  0  0  0  0  0  0  0  0
    7.1690   -4.4039    0.0000 C   0  0  0  0  0  0  0  0  0  0  0  0
    8.4479   -5.1877    0.0000 C   0  0  0  0  0  0  0  0  0  0  0  0
    8.0978   -6.6462    0.0000 C   0  0  0  0  0  0  0  0  0  0  0  0
    6.6024   -6.7639    0.0000 C   0  0  0  0  0  0  0  0  0  0  0  0
    5.8186   -8.0429    0.0000 C   0  0  0  0  0  0  0  0  0  0  0  0
    6.5344   -9.3611    0.0000 O   0  0  0  0  0  0  0  0  0  0  0  0
    4.3192   -8.0036    0.0000 N   0  0  0  0  0  0  0  0  0  0  0  0
    3.5354   -9.2826    0.0000 C   0  0  0  0  0  0  0  0  0  0  0  0
    2.0359   -9.2433    0.0000 N   0  0  0  0  0  0  0  0  0  0  0  0
    1.2522  -10.5223    0.0000 N   0  0  0  0  0  0  0  0  0  0  0  0
    1.9679  -11.8405    0.0000 N   0  0  0  0  0  0  0  0  0  0  0  0
    3.4674  -11.8797    0.0000 N   0  0  0  0  0  0  0  0  0  0  0  0
    4.2512  -10.6008    0.0000 N   0  0  0  0  0  0  0  0  0  0  0  0
    6.0284   -5.3781    0.0000 C   0  0  0  0  0  0  0  0  0  0  0  0
    4.5698   -5.0279    0.0000 O   0  0  0  0  0  0  0  0  0  0  0  0
    0.7500   -1.2990    0.0000 C   0  0  0  0  0  0  0  0  0  0  0  0
    1.5000    0.0000    0.0000 C   0  0  0  0  0  0  0  0  0  0  0  0
    0.7500    1.2990    0.0000 C   0  0  0  0  0  0  0  0  0  0  0  0
   -0.7500    1.2990    0.0000 C   0  0  0  0  0  0  0  0  0  0  0  0
   -1.5000    0.0000    0.0000 C   0  0  0  0  0  0  0  0  0  0  0  0
   -0.7500   -1.2990    0.0000 C   0  0  0  0  0  0  0  0  0  0  0  0
   -1.8107   -2.3597    0.0000 C   0  0  0  0  0  0  0  0  0  0  0  0
   -3.1097   -1.6097    0.0000 C   0  0  0  0  0  0  0  0  0  0  0  0
   -4.4087   -2.3597    0.0000 C   0  0  0  0  0  0  0  0  0  0  0  0
   -4.4087   -3.8597    0.0000 C   0  0  0  0  0  0  0  0  0  0  0  0
   -3.1097   -4.6097    0.0000 C   0  0  0  0  0  0  0  0  0  0  0  0
   -1.8107   -3.8597    0.0000 C   0  0  0  0  0  0  0  0  0  0  0  0
  1  2  1  0
  2  3  1  0
  3  4  2  0
  4  5  1  0
  5  6  1  0
  6  7  2  0
  6  8  1  0
  8  9  1  0
  9 10  2  0
 10 11  1  0
 11 12  2  0
 12 13  1  0
 13 14  1  0
 14 15  2  0
 15 16  1  0
 16 17  2  0
 17 18  1  0
 18 19  2  0
 18 20  1  0
 20 21  1  0
 21 22  2  0
 22 23  1  0
 23 24  2  0
 24 25  1  0
 25 26  2  0
 17 27  1  0
 27 28  2  0
  5 29  1  0
 29 30  2  0
 30 31  1  0
 31 32  2  0
 32 33  1  0
 33 34  2  0
 34 35  1  0
 35 36  2  0
 36 37  1  0
 37 38  2  0
 38 39  1  0
 39 40  2  0
 40  2  1  0
 13  9  1  0
 27 14  1  0
 34 29  1  0
 40 35  1  0
 26 21  1  0
M  END
>  <Title>  (1034) 
idABLVgen14

$$$$

     RDKit          2D

 43 48  0  0  0  0  0  0  0  0999 V2000
   -2.3737   -6.1885    0.0000 C   0  0  0  0  0  0  0  0  0  0  0  0
   -1.4095   -5.0395    0.0000 C   0  0  0  0  0  0  0  0  0  0  0  0
   -0.0000   -5.5525    0.0000 C   0  0  0  0  0  0  0  0  0  0  0  0
    1.4095   -5.0395    0.0000 C   0  0  0  0  0  0  0  0  0  0  0  0
    2.1595   -3.7404    0.0000 C   0  0  0  0  0  0  0  0  0  0  0  0
    1.8991   -2.2632    0.0000 C   0  0  0  0  0  0  0  0  0  0  0  0
    3.1981   -1.5132    0.0000 C   0  0  0  0  0  0  0  0  0  0  0  0
    3.1981   -0.0132    0.0000 O   0  0  0  0  0  0  0  0  0  0  0  0
    4.4971   -2.2632    0.0000 N   0  0  0  0  0  0  0  0  0  0  0  0
    5.7962   -1.5132    0.0000 C   0  0  0  0  0  0  0  0  0  0  0  0
    5.9530   -0.0214    0.0000 N   0  0  0  0  0  0  0  0  0  0  0  0
    7.4202    0.2904    0.0000 N   0  0  0  0  0  0  0  0  0  0  0  0
    8.1702   -1.0086    0.0000 N   0  0  0  0  0  0  0  0  0  0  0  0
    7.1665   -2.1233    0.0000 N   0  0  0  0  0  0  0  0  0  0  0  0
    7.4784   -3.5905    0.0000 C   0  0  0  0  0  0  0  0  0  0  0  0
    8.8487   -4.2007    0.0000 C   0  0  0  0  0  0  0  0  0  0  0  0
    8.6919   -5.6924    0.0000 C   0  0  0  0  0  0  0  0  0  0  0  0
    7.2247   -6.0043    0.0000 C   0  0  0  0  0  0  0  0  0  0  0  0
    6.6146   -7.3746    0.0000 C   0  0  0  0  0  0  0  0  0  0  0  0
    7.4962   -8.5881    0.0000 O   0  0  0  0  0  0  0  0  0  0  0  0
    5.1228   -7.5314    0.0000 N   0  0  0  0  0  0  0  0  0  0  0  0
    4.5127   -8.9017    0.0000 C   0  0  0  0  0  0  0  0  0  0  0  0
    3.0209   -9.0585    0.0000 N   0  0  0  0  0  0  0  0  0  0  0  0
    2.4108  -10.4288    0.0000 N   0  0  0  0  0  0  0  0  0  0  0  0
    3.2925  -11.6424    0.0000 N   0  0  0  0  0  0  0  0  0  0  0  0
    4.7843  -11.4856    0.0000 N   0  0  0  0  0  0  0  0  0  0  0  0
    5.3944  -10.1153    0.0000 N   0  0  0  0  0  0  0  0  0  0  0  0
    6.4747   -4.7053    0.0000 C   0  0  0  0  0  0  0  0  0  0  0  0
    4.9829   -4.5485    0.0000 O   0  0  0  0  0  0  0  0  0  0  0  0
    0.7500   -1.2990    0.0000 C   0  0  0  0  0  0  0  0  0  0  0  0
    1.5000    0.0000    0.0000 C   0  0  0  0  0  0  0  0  0  0  0  0
    0.7500    1.2990    0.0000 C   0  0  0  0  0  0  0  0  0  0  0  0
   -0.7500    1.2990    0.0000 C   0  0  0  0  0  0  0  0  0  0  0  0
   -1.5000    0.0000    0.0000 C   0  0  0  0  0  0  0  0  0  0  0  0
   -0.7500   -1.2990    0.0000 C   0  0  0  0  0  0  0  0  0  0  0  0
   -1.8991   -2.2632    0.0000 C   0  0  0  0  0  0  0  0  0  0  0  0
   -3.0481   -1.2990    0.0000 C   0  0  0  0  0  0  0  0  0  0  0  0
   -4.4577   -1.8121    0.0000 C   0  0  0  0  0  0  0  0  0  0  0  0
   -4.7181   -3.2893    0.0000 C   0  0  0  0  0  0  0  0  0  0  0  0
   -6.1277   -3.8023    0.0000 C   0  0  0  0  0  0  0  0  0  0  0  0
   -7.5372   -4.3153    0.0000 N   0  0  0  0  0  0  0  0  0  0  0  0
   -3.5691   -4.2535    0.0000 C   0  0  0  0  0  0  0  0  0  0  0  0
   -2.1595   -3.7404    0.0000 C   0  0  0  0  0  0  0  0  0  0  0  0
  1  2  1  0
  2  3  1  0
  3  4  1  0
  4  5  1  0
  5  6  2  0
  6  7  1  0
  7  8  2  0
  7  9  1  0
  9 10  1  0
 10 11  2  0
 11 12  1  0
 12 13  2  0
 13 14  1  0
 14 15  1  0
 15 16  2  0
 16 17  1  0
 17 18  2  0
 18 19  1  0
 19 20  2  0
 19 21  1  0
 21 22  1  0
 22 23  2  0
 23 24  1  0
 24 25  2  0
 25 26  1  0
 26 27  2  0
 18 28  1  0
 28 29  2  0
  6 30  1  0
 30 31  2  0
 31 32  1  0
 32 33  2  0
 33 34  1  0
 34 35  2  0
 35 36  1  0
 36 37  2  0
 37 38  1  0
 38 39  2  0
 39 40  1  0
 40 41  3  0
 39 42  1  0
 42 43  2  0
 43  2  1  0
 14 10  1  0
 28 15  1  0
 35 30  1  0
 43 36  1  0
 27 22  1  0
M  END
>  <Title>  (1035) 
idABLWgen14

$$$$

     RDKit          2D

 10 10  0  0  0  0  0  0  0  0999 V2000
    5.7760   -2.5981    0.0000 C   0  0  0  0  0  0  0  0  0  0  0  0
    5.0260   -1.2990    0.0000 C   0  0  0  0  0  0  0  0  0  0  0  0
    5.7760    0.0000    0.0000 C   0  0  0  0  0  0  0  0  0  0  0  0
    3.5260   -1.2990    0.0000 N   0  0  0  0  0  0  0  0  0  0  0  0
    2.7760    0.0000    0.0000 C   0  0  0  0  0  0  0  0  0  0  0  0
    1.2760    0.0000    0.0000 C   0  0  0  0  0  0  0  0  0  0  0  0
    0.3943    1.2135    0.0000 C   0  0  0  0  0  0  0  0  0  0  0  0
   -1.0323    0.7500    0.0000 C   0  0  0  0  0  0  0  0  0  0  0  0
   -1.0323   -0.7500    0.0000 C   0  0  0  0  0  0  0  0  0  0  0  0
    0.3943   -1.2135    0.0000 C   0  0  0  0  0  0  0  0  0  0  0  0
  1  2  1  0
  2  3  1  0
  2  4  1  0
  4  5  1  0
  5  6  1  0
  6  7  2  0
  7  8  1  0
  8  9  2  0
  9 10  1  0
 10  6  1  0
M  END
>  <Title>  (1036) 
idABLXgen14

$$$$

     RDKit          2D

  9  8  0  0  0  0  0  0  0  0999 V2000
    0.0000    0.0000    0.0000 C   0  0  0  0  0  0  0  0  0  0  0  0
    1.2990    0.7500    0.0000 C   0  0  0  0  0  0  0  0  0  0  0  0
    2.5981   -0.0000    0.0000 C   0  0  0  0  0  0  0  0  0  0  0  0
    1.2990    2.2500    0.0000 C   0  0  0  0  0  0  0  0  0  0  0  0
    1.2990    3.7500    0.0000 C   0  0  0  0  0  0  0  0  0  0  0  0
    1.2990    5.2500    0.0000 C   0  0  0  0  0  0  0  0  0  0  0  0
    2.5981    6.0000    0.0000 C   0  0  0  0  0  0  0  0  0  0  0  0
    2.5981    7.5000    0.0000 C   0  0  0  0  0  0  0  0  0  0  0  0
    3.8971    5.2500    0.0000 C   0  0  0  0  0  0  0  0  0  0  0  0
  1  2  1  0
  2  3  1  0
  2  4  1  0
  4  5  3  0
  5  6  1  0
  6  7  1  0
  7  8  1  0
  7  9  1  0
M  END
>  <Title>  (1037) 
idABLYgen14

$$$$

     RDKit          2D

  5  4  0  0  0  0  0  0  0  0999 V2000
    0.0000    0.0000    0.0000 C   0  0  0  0  0  0  0  0  0  0  0  0
    1.2990    0.7500    0.0000 C   0  0  0  0  0  0  0  0  0  0  0  0
    2.5981   -0.0000    0.0000 C   0  0  0  0  0  0  0  0  0  0  0  0
    3.8971    0.7500    0.0000 N   0  0  0  0  0  0  0  0  0  0  0  0
    5.1962   -0.0000    0.0000 C   0  0  0  0  0  0  0  0  0  0  0  0
  1  2  1  0
  2  3  1  0
  3  4  1  0
  4  5  1  0
M  END
>  <Title>  (1038) 
idABLZgen14

$$$$

     RDKit          2D

 34 38  0  0  0  0  0  0  0  0999 V2000
   10.0051   -0.5013    0.0000 C   0  0  0  0  0  0  0  0  0  0  0  0
    8.5134   -0.6581    0.0000 C   0  0  0  0  0  0  0  0  0  0  0  0
    7.7634   -1.9571    0.0000 C   0  0  0  0  0  0  0  0  0  0  0  0
    6.2961   -1.6453    0.0000 C   0  0  0  0  0  0  0  0  0  0  0  0
    5.1814   -2.6490    0.0000 N   0  0  0  0  0  0  0  0  0  0  0  0
    5.4933   -4.1162    0.0000 C   0  0  0  0  0  0  0  0  0  0  0  0
    6.9199   -4.5797    0.0000 O   0  0  0  0  0  0  0  0  0  0  0  0
    4.3786   -5.1199    0.0000 N   0  0  0  0  0  0  0  0  0  0  0  0
    4.6904   -6.5871    0.0000 C   0  0  0  0  0  0  0  0  0  0  0  0
    6.0607   -7.1972    0.0000 N   0  0  0  0  0  0  0  0  0  0  0  0
    5.9040   -8.6890    0.0000 N   0  0  0  0  0  0  0  0  0  0  0  0
    4.4367   -9.0009    0.0000 N   0  0  0  0  0  0  0  0  0  0  0  0
    3.6867   -7.7018    0.0000 N   0  0  0  0  0  0  0  0  0  0  0  0
    2.1950   -7.5450    0.0000 N   0  0  0  0  0  0  0  0  0  0  0  0
    1.4450   -6.2460    0.0000 C   0  0  0  0  0  0  0  0  0  0  0  0
   -0.0223   -6.5579    0.0000 C   0  0  0  0  0  0  0  0  0  0  0  0
   -0.1791   -8.0497    0.0000 N   0  0  0  0  0  0  0  0  0  0  0  0
   -1.4781   -8.7997    0.0000 C   0  0  0  0  0  0  0  0  0  0  0  0
   -1.4781  -10.2997    0.0000 O   0  0  0  0  0  0  0  0  0  0  0  0
   -2.7771   -8.0497    0.0000 N   0  0  0  0  0  0  0  0  0  0  0  0
   -4.0762   -8.7997    0.0000 C   0  0  0  0  0  0  0  0  0  0  0  0
   -4.0762  -10.2997    0.0000 N   0  0  0  0  0  0  0  0  0  0  0  0
   -5.3752  -11.0497    0.0000 N   0  0  0  0  0  0  0  0  0  0  0  0
   -6.6743  -10.2997    0.0000 N   0  0  0  0  0  0  0  0  0  0  0  0
   -6.6743   -8.7997    0.0000 N   0  0  0  0  0  0  0  0  0  0  0  0
   -5.3752   -8.0497    0.0000 N   0  0  0  0  0  0  0  0  0  0  0  0
    1.1913   -8.6598    0.0000 C   0  0  0  0  0  0  0  0  0  0  0  0
    1.5031  -10.1270    0.0000 O   0  0  0  0  0  0  0  0  0  0  0  0
    6.1393   -0.1535    0.0000 C   0  0  0  0  0  0  0  0  0  0  0  0
    4.9258    0.7282    0.0000 C   0  0  0  0  0  0  0  0  0  0  0  0
    5.0826    2.2200    0.0000 C   0  0  0  0  0  0  0  0  0  0  0  0
    6.4529    2.8301    0.0000 C   0  0  0  0  0  0  0  0  0  0  0  0
    7.6664    1.9484    0.0000 C   0  0  0  0  0  0  0  0  0  0  0  0
    7.5097    0.4566    0.0000 C   0  0  0  0  0  0  0  0  0  0  0  0
  1  2  1  0
  2  3  2  0
  3  4  1  0
  4  5  1  0
  5  6  1  0
  6  7  2  0
  6  8  1  0
  8  9  1  0
  9 10  2  0
 10 11  1  0
 11 12  2  0
 12 13  1  0
 13 14  1  0
 14 15  1  0
 15 16  1  0
 16 17  1  0
 17 18  1  0
 18 19  2  0
 18 20  1  0
 20 21  1  0
 21 22  2  0
 22 23  1  0
 23 24  2  0
 24 25  1  0
 25 26  2  0
 17 27  1  0
 27 28  2  0
  4 29  1  0
 29 30  2  0
 30 31  1  0
 31 32  2  0
 32 33  1  0
 33 34  2  0
 34  2  1  0
 13  9  1  0
 27 14  1  0
 34 29  1  0
 26 21  1  0
M  END
>  <Title>  (1039) 
idABMAgen14

$$$$

     RDKit          2D

 14 14  0  0  0  0  0  0  0  0999 V2000
    8.2500   -3.8971    0.0000 C   0  0  0  0  0  0  0  0  0  0  0  0
    7.5000   -2.5981    0.0000 C   0  0  0  0  0  0  0  0  0  0  0  0
    6.0000   -2.5981    0.0000 C   0  0  0  0  0  0  0  0  0  0  0  0
    5.2500   -1.2990    0.0000 N   0  0  0  0  0  0  0  0  0  0  0  0
    3.7500   -1.2990    0.0000 C   0  0  0  0  0  0  0  0  0  0  0  0
    3.0000    0.0000    0.0000 C   0  0  0  0  0  0  0  0  0  0  0  0
    1.5000    0.0000    0.0000 C   0  0  0  0  0  0  0  0  0  0  0  0
    0.7500   -1.2990    0.0000 C   0  0  0  0  0  0  0  0  0  0  0  0
   -0.7500   -1.2990    0.0000 C   0  0  0  0  0  0  0  0  0  0  0  0
   -1.5000    0.0000    0.0000 C   0  0  0  0  0  0  0  0  0  0  0  0
   -3.0000    0.0000    0.0000 O   0  0  0  0  0  0  0  0  0  0  0  0
   -3.7500    1.2990    0.0000 C   0  0  0  0  0  0  0  0  0  0  0  0
   -0.7500    1.2990    0.0000 N   0  0  0  0  0  0  0  0  0  0  0  0
    0.7500    1.2990    0.0000 C   0  0  0  0  0  0  0  0  0  0  0  0
  1  2  1  0
  2  3  2  3
  3  4  1  0
  4  5  1  0
  5  6  1  0
  6  7  1  0
  7  8  2  0
  8  9  1  0
  9 10  2  0
 10 11  1  0
 11 12  1  0
 10 13  1  0
 13 14  2  0
 14  7  1  0
M  END
>  <Title>  (1040) 
idABMBgen14

$$$$

     RDKit          2D

 12 12  0  0  0  0  0  0  0  0999 V2000
    3.0000   -5.1962    0.0000 C   0  0  0  0  0  0  0  0  0  0  0  0
    3.7500   -3.8971    0.0000 C   0  0  0  0  0  0  0  0  0  0  0  0
    3.0000   -2.5981    0.0000 C   0  0  0  0  0  0  0  0  0  0  0  0
    3.7500   -1.2990    0.0000 C   0  0  0  0  0  0  0  0  0  0  0  0
    5.2500   -1.2990    0.0000 C   0  0  0  0  0  0  0  0  0  0  0  0
    3.0000    0.0000    0.0000 C   0  0  0  0  0  0  0  0  0  0  0  0
    1.5000    0.0000    0.0000 C   0  0  0  0  0  0  0  0  0  0  0  0
    0.7500   -1.2990    0.0000 C   0  0  0  0  0  0  0  0  0  0  0  0
   -0.7500   -1.2990    0.0000 C   0  0  0  0  0  0  0  0  0  0  0  0
   -1.5000    0.0000    0.0000 C   0  0  0  0  0  0  0  0  0  0  0  0
   -0.7500    1.2990    0.0000 N   0  0  0  0  0  0  0  0  0  0  0  0
    0.7500    1.2990    0.0000 C   0  0  0  0  0  0  0  0  0  0  0  0
  1  2  1  0
  2  3  1  0
  3  4  1  0
  4  5  1  0
  4  6  1  0
  6  7  1  0
  7  8  2  0
  8  9  1  0
  9 10  2  0
 10 11  1  0
 11 12  2  0
 12  7  1  0
M  END
>  <Title>  (1041) 
idABMCgen14

$$$$

     RDKit          2D

  6  5  0  0  0  0  0  0  0  0999 V2000
    0.0000    0.0000    0.0000 C   0  0  0  0  0  0  0  0  0  0  0  0
    1.2990    0.7500    0.0000 C   0  0  0  0  0  0  0  0  0  0  0  0
    2.5981   -0.0000    0.0000 C   0  0  0  0  0  0  0  0  0  0  0  0
    3.3481    1.2990    0.0000 C   0  0  0  0  0  0  0  0  0  0  0  0
    1.8481   -1.2990    0.0000 C   0  0  0  0  0  0  0  0  0  0  0  0
    3.8971   -0.7500    0.0000 C   0  0  0  0  0  0  0  0  0  0  0  0
  1  2  1  0
  2  3  1  0
  3  4  1  0
  3  5  1  0
  3  6  1  0
M  END
>  <Title>  (1042) 
idABMDgen14

$$$$

     RDKit          2D

 12 12  0  0  0  0  0  0  0  0999 V2000
    6.0000   -2.5981    0.0000 C   0  0  0  0  0  0  0  0  0  0  0  0
    5.2500   -1.2990    0.0000 C   0  0  0  0  0  0  0  0  0  0  0  0
    3.7500   -1.2990    0.0000 C   0  0  0  0  0  0  0  0  0  0  0  0
    3.0000    0.0000    0.0000 N   0  0  0  0  0  0  0  0  0  0  0  0
    1.5000    0.0000    0.0000 C   0  0  0  0  0  0  0  0  0  0  0  0
    0.7500   -1.2990    0.0000 C   0  0  0  0  0  0  0  0  0  0  0  0
   -0.7500   -1.2990    0.0000 C   0  0  0  0  0  0  0  0  0  0  0  0
   -1.5000    0.0000    0.0000 C   0  0  0  0  0  0  0  0  0  0  0  0
   -0.7500    1.2990    0.0000 C   0  0  0  0  0  0  0  0  0  0  0  0
    0.7500    1.2990    0.0000 C   0  0  0  0  0  0  0  0  0  0  0  0
    3.0000   -2.5981    0.0000 O   0  0  0  0  0  0  0  0  0  0  0  0
    3.7500   -3.8971    0.0000 C   0  0  0  0  0  0  0  0  0  0  0  0
  1  2  1  0
  2  3  1  0
  3  4  1  0
  4  5  1  0
  5  6  2  0
  6  7  1  0
  7  8  2  0
  8  9  1  0
  9 10  2  0
  3 11  1  0
 11 12  1  0
 10  5  1  0
M  END
>  <Title>  (1043) 
idABMEgen14

$$$$

     RDKit          2D

  8  7  0  0  0  0  0  0  0  0999 V2000
    0.0000    0.0000    0.0000 C   0  0  0  0  0  0  0  0  0  0  0  0
    1.2990    0.7500    0.0000 C   0  0  0  0  0  0  0  0  0  0  0  0
    2.5981   -0.0000    0.0000 C   0  0  0  0  0  0  0  0  0  0  0  0
    3.8971    0.7500    0.0000 C   0  0  0  0  0  0  0  0  0  0  0  0
    5.1962   -0.0000    0.0000 C   0  0  0  0  0  0  0  0  0  0  0  0
    6.4952    0.7500    0.0000 C   0  0  0  0  0  0  0  0  0  0  0  0
    7.7942   -0.0000    0.0000 C   0  0  0  0  0  0  0  0  0  0  0  0
    9.0933    0.7500    0.0000 C   0  0  0  0  0  0  0  0  0  0  0  0
  1  2  1  0
  2  3  2  3
  3  4  1  0
  4  5  1  0
  5  6  1  0
  6  7  1  0
  7  8  1  0
M  END
>  <Title>  (1044) 
idABMFgen14

$$$$

     RDKit          2D

 40 45  0  0  0  0  0  0  0  0999 V2000
   -3.1771   -5.9156    0.0000 C   0  0  0  0  0  0  0  0  0  0  0  0
   -1.9635   -5.0339    0.0000 C   0  0  0  0  0  0  0  0  0  0  0  0
   -0.7500   -5.9156    0.0000 C   0  0  0  0  0  0  0  0  0  0  0  0
    0.7500   -5.9156    0.0000 C   0  0  0  0  0  0  0  0  0  0  0  0
    1.9635   -5.0339    0.0000 C   0  0  0  0  0  0  0  0  0  0  0  0
    2.4271   -3.6073    0.0000 C   0  0  0  0  0  0  0  0  0  0  0  0
    1.9635   -2.1807    0.0000 C   0  0  0  0  0  0  0  0  0  0  0  0
    3.1771   -1.2990    0.0000 C   0  0  0  0  0  0  0  0  0  0  0  0
    3.0203    0.1927    0.0000 O   0  0  0  0  0  0  0  0  0  0  0  0
    4.5474   -1.9091    0.0000 N   0  0  0  0  0  0  0  0  0  0  0  0
    5.7609   -1.0275    0.0000 C   0  0  0  0  0  0  0  0  0  0  0  0
    5.7609    0.4725    0.0000 N   0  0  0  0  0  0  0  0  0  0  0  0
    7.1875    0.9361    0.0000 N   0  0  0  0  0  0  0  0  0  0  0  0
    8.0692   -0.2775    0.0000 N   0  0  0  0  0  0  0  0  0  0  0  0
    7.1875   -1.4910    0.0000 N   0  0  0  0  0  0  0  0  0  0  0  0
    7.6510   -2.9176    0.0000 N   0  0  0  0  0  0  0  0  0  0  0  0
    6.6473   -4.0323    0.0000 C   0  0  0  0  0  0  0  0  0  0  0  0
    7.1108   -5.4589    0.0000 N   0  0  0  0  0  0  0  0  0  0  0  0
    8.5781   -5.7707    0.0000 N   0  0  0  0  0  0  0  0  0  0  0  0
    9.5818   -4.6560    0.0000 N   0  0  0  0  0  0  0  0  0  0  0  0
    9.1182   -3.2294    0.0000 N   0  0  0  0  0  0  0  0  0  0  0  0
   10.1219   -2.1147    0.0000 C   0  0  0  0  0  0  0  0  0  0  0  0
   11.5891   -2.4266    0.0000 C   0  0  0  0  0  0  0  0  0  0  0  0
   12.5928   -1.3119    0.0000 C   0  0  0  0  0  0  0  0  0  0  0  0
   12.1293    0.1147    0.0000 C   0  0  0  0  0  0  0  0  0  0  0  0
   13.1330    1.2294    0.0000 O   0  0  0  0  0  0  0  0  0  0  0  0
   10.6621    0.4266    0.0000 C   0  0  0  0  0  0  0  0  0  0  0  0
    9.6584   -0.6881    0.0000 C   0  0  0  0  0  0  0  0  0  0  0  0
    0.7500   -1.2990    0.0000 C   0  0  0  0  0  0  0  0  0  0  0  0
    1.5000    0.0000    0.0000 C   0  0  0  0  0  0  0  0  0  0  0  0
    0.7500    1.2990    0.0000 C   0  0  0  0  0  0  0  0  0  0  0  0
   -0.7500    1.2990    0.0000 C   0  0  0  0  0  0  0  0  0  0  0  0
   -1.5000    0.0000    0.0000 C   0  0  0  0  0  0  0  0  0  0  0  0
   -0.7500   -1.2990    0.0000 C   0  0  0  0  0  0  0  0  0  0  0  0
   -1.9635   -2.1807    0.0000 C   0  0  0  0  0  0  0  0  0  0  0  0
   -2.9672   -1.0660    0.0000 C   0  0  0  0  0  0  0  0  0  0  0  0
   -4.4344   -1.3779    0.0000 C   0  0  0  0  0  0  0  0  0  0  0  0
   -4.8980   -2.8045    0.0000 C   0  0  0  0  0  0  0  0  0  0  0  0
   -3.8943   -3.9192    0.0000 C   0  0  0  0  0  0  0  0  0  0  0  0
   -2.4271   -3.6073    0.0000 C   0  0  0  0  0  0  0  0  0  0  0  0
  1  2  1  0
  2  3  1  0
  3  4  2  0
  4  5  1  0
  5  6  1  0
  6  7  1  0
  7  8  1  0
  8  9  2  0
  8 10  1  0
 10 11  1  0
 11 12  2  0
 12 13  1  0
 13 14  2  0
 14 15  1  0
 15 16  1  0
 16 17  1  0
 17 18  2  0
 18 19  1  0
 19 20  2  0
 20 21  1  0
 21 22  1  0
 22 23  2  0
 23 24  1  0
 24 25  2  0
 25 26  1  0
 25 27  1  0
 27 28  2  0
  7 29  1  0
 29 30  2  0
 30 31  1  0
 31 32  2  0
 32 33  1  0
 33 34  2  0
 34 35  1  0
 35 36  2  0
 36 37  1  0
 37 38  2  0
 38 39  1  0
 39 40  2  0
 40  2  1  0
 15 11  1  0
 21 16  1  0
 28 22  1  0
 34 29  1  0
 40 35  1  0
M  END
>  <Title>  (1045) 
idABMGgen14

$$$$

     RDKit          2D

 15 15  0  0  0  0  0  0  0  0999 V2000
   10.5000   -5.1962    0.0000 C   0  0  0  0  0  0  0  0  0  0  0  0
    9.7500   -3.8971    0.0000 C   0  0  0  0  0  0  0  0  0  0  0  0
    8.2500   -3.8971    0.0000 C   0  0  0  0  0  0  0  0  0  0  0  0
    7.5000   -2.5981    0.0000 C   0  0  0  0  0  0  0  0  0  0  0  0
    6.0000   -2.5981    0.0000 C   0  0  0  0  0  0  0  0  0  0  0  0
    5.2500   -1.2990    0.0000 C   0  0  0  0  0  0  0  0  0  0  0  0
    6.0000    0.0000    0.0000 O   0  0  0  0  0  0  0  0  0  0  0  0
    3.7500   -1.2990    0.0000 N   0  0  0  0  0  0  0  0  0  0  0  0
    3.0000    0.0000    0.0000 C   0  0  0  0  0  0  0  0  0  0  0  0
    1.5000    0.0000    0.0000 C   0  0  0  0  0  0  0  0  0  0  0  0
    0.7500   -1.2990    0.0000 C   0  0  0  0  0  0  0  0  0  0  0  0
   -0.7500   -1.2990    0.0000 C   0  0  0  0  0  0  0  0  0  0  0  0
   -1.5000    0.0000    0.0000 C   0  0  0  0  0  0  0  0  0  0  0  0
   -0.7500    1.2990    0.0000 N   0  0  0  0  0  0  0  0  0  0  0  0
    0.7500    1.2990    0.0000 C   0  0  0  0  0  0  0  0  0  0  0  0
  1  2  1  0
  2  3  2  3
  3  4  1  0
  4  5  1  0
  5  6  1  0
  6  7  2  0
  6  8  1  0
  8  9  1  0
  9 10  1  0
 10 11  2  0
 11 12  1  0
 12 13  2  0
 13 14  1  0
 14 15  2  0
 15 10  1  0
M  END
>  <Title>  (1046) 
idABMHgen14

$$$$

     RDKit          2D

 13 12  0  0  0  0  0  0  0  0999 V2000
    0.0000    0.0000    0.0000 C   0  0  0  0  0  0  0  0  0  0  0  0
    1.2990    0.7500    0.0000 C   0  0  0  0  0  0  0  0  0  0  0  0
    2.5981   -0.0000    0.0000 C   0  0  0  0  0  0  0  0  0  0  0  0
    3.8971    0.7500    0.0000 C   0  0  0  0  0  0  0  0  0  0  0  0
    3.8971    2.2500    0.0000 O   0  0  0  0  0  0  0  0  0  0  0  0
    5.1962   -0.0000    0.0000 N   0  0  0  0  0  0  0  0  0  0  0  0
    6.4952    0.7500    0.0000 C   0  0  0  0  0  0  0  0  0  0  0  0
    7.7942   -0.0000    0.0000 C   0  0  0  0  0  0  0  0  0  0  0  0
    6.4952    2.2500    0.0000 C   0  0  0  0  0  0  0  0  0  0  0  0
    7.7942    3.0000    0.0000 C   0  0  0  0  0  0  0  0  0  0  0  0
    7.7942    4.5000    0.0000 C   0  0  0  0  0  0  0  0  0  0  0  0
    9.0933    2.2500    0.0000 C   0  0  0  0  0  0  0  0  0  0  0  0
   10.3923    3.0000    0.0000 C   0  0  0  0  0  0  0  0  0  0  0  0
  1  2  1  0
  2  3  1  0
  3  4  1  0
  4  5  2  0
  4  6  1  0
  6  7  1  0
  7  8  1  0
  7  9  1  0
  9 10  1  0
 10 11  1  0
 10 12  1  0
 12 13  1  0
M  END
>  <Title>  (1047) 
idABMIgen14

$$$$

     RDKit          2D

 20 21  0  0  0  0  0  0  0  0999 V2000
    7.5000   -2.5981    0.0000 C   0  0  0  0  0  0  0  0  0  0  0  0
    6.0000   -2.5981    0.0000 C   0  0  0  0  0  0  0  0  0  0  0  0
    5.2500   -1.2990    0.0000 C   0  0  0  0  0  0  0  0  0  0  0  0
    3.7500   -1.2990    0.0000 C   0  0  0  0  0  0  0  0  0  0  0  0
    3.0000   -2.5981    0.0000 O   0  0  0  0  0  0  0  0  0  0  0  0
    3.0000    0.0000    0.0000 N   0  0  0  0  0  0  0  0  0  0  0  0
    1.5000    0.0000    0.0000 C   0  0  0  0  0  0  0  0  0  0  0  0
    0.7500   -1.2990    0.0000 C   0  0  0  0  0  0  0  0  0  0  0  0
   -0.7500   -1.2990    0.0000 C   0  0  0  0  0  0  0  0  0  0  0  0
   -1.5000    0.0000    0.0000 C   0  0  0  0  0  0  0  0  0  0  0  0
   -3.0000    0.0000    0.0000 O   0  0  0  0  0  0  0  0  0  0  0  0
   -3.7500    1.2990    0.0000 C   0  0  0  0  0  0  0  0  0  0  0  0
   -3.0000    2.5981    0.0000 C   0  0  0  0  0  0  0  0  0  0  0  0
   -3.7500    3.8971    0.0000 C   0  0  0  0  0  0  0  0  0  0  0  0
   -5.2500    3.8971    0.0000 C   0  0  0  0  0  0  0  0  0  0  0  0
   -6.0000    5.1962    0.0000 O   0  0  0  0  0  0  0  0  0  0  0  0
   -6.0000    2.5981    0.0000 C   0  0  0  0  0  0  0  0  0  0  0  0
   -5.2500    1.2990    0.0000 C   0  0  0  0  0  0  0  0  0  0  0  0
   -0.7500    1.2990    0.0000 C   0  0  0  0  0  0  0  0  0  0  0  0
    0.7500    1.2990    0.0000 C   0  0  0  0  0  0  0  0  0  0  0  0
  1  2  1  0
  2  3  1  0
  3  4  1  0
  4  5  2  0
  4  6  1  0
  6  7  1  0
  7  8  2  0
  8  9  1  0
  9 10  1  0
 10 11  1  0
 11 12  1  0
 12 13  2  0
 13 14  1  0
 14 15  2  0
 15 16  1  0
 15 17  1  0
 17 18  2  0
 10 19  1  0
 19 20  2  0
 20  7  1  0
 18 12  1  0
M  END
>  <Title>  (1048) 
idABMJgen14

$$$$

     RDKit          2D

  9  9  0  0  0  0  0  0  0  0999 V2000
    5.0260   -1.2990    0.0000 C   0  0  0  0  0  0  0  0  0  0  0  0
    3.5260   -1.2990    0.0000 C   0  0  0  0  0  0  0  0  0  0  0  0
    2.7760   -2.5981    0.0000 O   0  0  0  0  0  0  0  0  0  0  0  0
    2.7760    0.0000    0.0000 C   0  0  0  0  0  0  0  0  0  0  0  0
    1.2760    0.0000    0.0000 C   0  0  0  0  0  0  0  0  0  0  0  0
    0.3943    1.2135    0.0000 C   0  0  0  0  0  0  0  0  0  0  0  0
   -1.0323    0.7500    0.0000 S   0  0  0  0  0  0  0  0  0  0  0  0
   -1.0323   -0.7500    0.0000 C   0  0  0  0  0  0  0  0  0  0  0  0
    0.3943   -1.2135    0.0000 N   0  0  0  0  0  0  0  0  0  0  0  0
  1  2  1  0
  2  3  2  0
  2  4  1  0
  4  5  1  0
  5  6  2  0
  6  7  1  0
  7  8  1  0
  8  9  2  0
  9  5  1  0
M  END
>  <Title>  (1049) 
idABMKgen14

$$$$

     RDKit          2D

  9  9  0  0  0  0  0  0  0  0999 V2000
    5.2500   -1.2990    0.0000 C   0  0  0  0  0  0  0  0  0  0  0  0
    3.7500   -1.2990    0.0000 C   0  0  0  0  0  0  0  0  0  0  0  0
    3.0000    0.0000    0.0000 C   0  0  0  0  0  0  0  0  0  0  0  0
    1.5000    0.0000    0.0000 C   0  0  0  0  0  0  0  0  0  0  0  0
    0.7500   -1.2990    0.0000 C   0  0  0  0  0  0  0  0  0  0  0  0
   -0.7500   -1.2990    0.0000 C   0  0  0  0  0  0  0  0  0  0  0  0
   -1.5000    0.0000    0.0000 C   0  0  0  0  0  0  0  0  0  0  0  0
   -0.7500    1.2990    0.0000 N   0  0  0  0  0  0  0  0  0  0  0  0
    0.7500    1.2990    0.0000 C   0  0  0  0  0  0  0  0  0  0  0  0
  1  2  2  0
  2  3  1  0
  3  4  1  0
  4  5  2  0
  5  6  1  0
  6  7  2  0
  7  8  1  0
  8  9  2  0
  9  4  1  0
M  END
>  <Title>  (1050) 
idABMLgen14

$$$$

     RDKit          2D

 17 17  0  0  0  0  0  0  0  0999 V2000
   10.5000    0.0000    0.0000 C   0  0  0  0  0  0  0  0  0  0  0  0
    9.7500   -1.2990    0.0000 C   0  0  0  0  0  0  0  0  0  0  0  0
   10.5000   -2.5981    0.0000 C   0  0  0  0  0  0  0  0  0  0  0  0
    8.2500   -1.2990    0.0000 C   0  0  0  0  0  0  0  0  0  0  0  0
    7.5000   -2.5981    0.0000 C   0  0  0  0  0  0  0  0  0  0  0  0
    8.2500   -3.8971    0.0000 C   0  0  0  0  0  0  0  0  0  0  0  0
    6.0000   -2.5981    0.0000 N   0  0  0  0  0  0  0  0  0  0  0  0
    5.2500   -1.2990    0.0000 C   0  0  0  0  0  0  0  0  0  0  0  0
    6.0000    0.0000    0.0000 O   0  0  0  0  0  0  0  0  0  0  0  0
    3.7500   -1.2990    0.0000 N   0  0  0  0  0  0  0  0  0  0  0  0
    3.0000    0.0000    0.0000 C   0  0  0  0  0  0  0  0  0  0  0  0
    1.5000    0.0000    0.0000 C   0  0  0  0  0  0  0  0  0  0  0  0
    0.7500   -1.2990    0.0000 C   0  0  0  0  0  0  0  0  0  0  0  0
   -0.7500   -1.2990    0.0000 C   0  0  0  0  0  0  0  0  0  0  0  0
   -1.5000    0.0000    0.0000 C   0  0  0  0  0  0  0  0  0  0  0  0
   -0.7500    1.2990    0.0000 N   0  0  0  0  0  0  0  0  0  0  0  0
    0.7500    1.2990    0.0000 C   0  0  0  0  0  0  0  0  0  0  0  0
  1  2  1  0
  2  3  1  0
  2  4  1  0
  4  5  1  0
  5  6  1  0
  5  7  1  0
  7  8  1  0
  8  9  2  0
  8 10  1  0
 10 11  1  0
 11 12  1  0
 12 13  2  0
 13 14  1  0
 14 15  2  0
 15 16  1  0
 16 17  2  0
 17 12  1  0
M  END
>  <Title>  (1051) 
idABMMgen14

$$$$

     RDKit          2D

 12 12  0  0  0  0  0  0  0  0999 V2000
    6.0000   -2.5981    0.0000 C   0  0  0  0  0  0  0  0  0  0  0  0
    5.2500   -1.2990    0.0000 C   0  0  0  0  0  0  0  0  0  0  0  0
    6.0000    0.0000    0.0000 C   0  0  0  0  0  0  0  0  0  0  0  0
    3.7500   -1.2990    0.0000 C   0  0  0  0  0  0  0  0  0  0  0  0
    3.0000   -2.5981    0.0000 O   0  0  0  0  0  0  0  0  0  0  0  0
    3.0000    0.0000    0.0000 N   0  0  0  0  0  0  0  0  0  0  0  0
    1.5000    0.0000    0.0000 C   0  0  0  0  0  0  0  0  0  0  0  0
    0.7500   -1.2990    0.0000 C   0  0  0  0  0  0  0  0  0  0  0  0
   -0.7500   -1.2990    0.0000 C   0  0  0  0  0  0  0  0  0  0  0  0
   -1.5000    0.0000    0.0000 C   0  0  0  0  0  0  0  0  0  0  0  0
   -0.7500    1.2990    0.0000 C   0  0  0  0  0  0  0  0  0  0  0  0
    0.7500    1.2990    0.0000 C   0  0  0  0  0  0  0  0  0  0  0  0
  1  2  1  0
  2  3  1  0
  2  4  1  0
  4  5  2  0
  4  6  1  0
  6  7  1  0
  7  8  2  0
  8  9  1  0
  9 10  2  0
 10 11  1  0
 11 12  2  0
 12  7  1  0
M  END
>  <Title>  (1052) 
idABMNgen14

$$$$

     RDKit          2D

  8  8  0  0  0  0  0  0  0  0999 V2000
    4.5000    0.0000    0.0000 C   0  0  0  0  0  0  0  0  0  0  0  0
    3.0000    0.0000    0.0000 C   0  0  0  0  0  0  0  0  0  0  0  0
    1.5000    0.0000    0.0000 C   0  0  0  0  0  0  0  0  0  0  0  0
    0.7500   -1.2990    0.0000 C   0  0  0  0  0  0  0  0  0  0  0  0
   -0.7500   -1.2990    0.0000 C   0  0  0  0  0  0  0  0  0  0  0  0
   -1.5000    0.0000    0.0000 C   0  0  0  0  0  0  0  0  0  0  0  0
   -0.7500    1.2990    0.0000 C   0  0  0  0  0  0  0  0  0  0  0  0
    0.7500    1.2990    0.0000 N   0  0  0  0  0  0  0  0  0  0  0  0
  1  2  3  0
  2  3  1  0
  3  4  1  0
  4  5  2  0
  5  6  1  0
  6  7  1  0
  7  8  2  0
  8  3  1  0
M  END
>  <Title>  (1053) 
idABMOgen14

$$$$

     RDKit          2D

  8  7  0  0  0  0  0  0  0  0999 V2000
    0.0000    0.0000    0.0000 C   0  0  0  0  0  0  0  0  0  0  0  0
    1.2990    0.7500    0.0000 C   0  0  0  0  0  0  0  0  0  0  0  0
    2.5981   -0.0000    0.0000 C   0  0  0  0  0  0  0  0  0  0  0  0
    3.8971    0.7500    0.0000 N   0  0  0  0  0  0  0  0  0  0  0  0
    5.1962   -0.0000    0.0000 C   0  0  0  0  0  0  0  0  0  0  0  0
    5.1962   -1.5000    0.0000 O   0  0  0  0  0  0  0  0  0  0  0  0
    6.4952    0.7500    0.0000 C   0  0  0  0  0  0  0  0  0  0  0  0
    7.7942   -0.0000    0.0000 C   0  0  0  0  0  0  0  0  0  0  0  0
  1  2  1  0
  2  3  2  3
  3  4  1  0
  4  5  1  0
  5  6  2  0
  5  7  1  0
  7  8  1  0
M  END
>  <Title>  (1054) 
idABMPgen14

$$$$

     RDKit          2D

  7  7  0  0  0  0  0  0  0  0999 V2000
    1.7286    0.0000    0.0000 C   0  0  0  0  0  0  0  0  0  0  0  0
    1.0777    1.3515    0.0000 C   0  0  0  0  0  0  0  0  0  0  0  0
   -0.3846    1.6852    0.0000 C   0  0  0  0  0  0  0  0  0  0  0  0
   -1.5574    0.7500    0.0000 C   0  0  0  0  0  0  0  0  0  0  0  0
   -1.5574   -0.7500    0.0000 C   0  0  0  0  0  0  0  0  0  0  0  0
   -0.3846   -1.6852    0.0000 C   0  0  0  0  0  0  0  0  0  0  0  0
    1.0777   -1.3515    0.0000 C   0  0  0  0  0  0  0  0  0  0  0  0
  1  2  2  0
  2  3  1  0
  3  4  1  0
  4  5  1  0
  5  6  1  0
  6  7  2  0
  7  1  1  0
M  END
>  <Title>  (1055) 
idABMQgen14

$$$$

     RDKit          2D

 44 43  0  0  0  0  0  0  0  0999 V2000
    0.0000    0.0000    0.0000 C   0  0  0  0  0  0  0  0  0  0  0  0
   -0.0000   -1.5000    0.0000 C   0  0  0  0  0  0  0  0  0  0  0  0
   -0.0000   -3.0000    0.0000 C   0  0  0  0  0  0  0  0  0  0  0  0
   -0.0000   -4.5000    0.0000 C   0  0  0  0  0  0  0  0  0  0  0  0
   -0.0000   -6.0000    0.0000 C   0  0  0  0  0  0  0  0  0  0  0  0
   -0.0000   -7.5000    0.0000 C   0  0  0  0  0  0  0  0  0  0  0  0
   -0.0000   -9.0000    0.0000 C   0  0  0  0  0  0  0  0  0  0  0  0
   -0.0000  -10.5000    0.0000 C   0  0  0  0  0  0  0  0  0  0  0  0
   -0.0000  -12.0000    0.0000 C   0  0  0  0  0  0  0  0  0  0  0  0
   -0.0000  -13.5000    0.0000 C   0  0  0  0  0  0  0  0  0  0  0  0
   -0.0000  -15.0000    0.0000 C   0  0  0  0  0  0  0  0  0  0  0  0
   -0.0000  -16.5000    0.0000 C   0  0  0  0  0  0  0  0  0  0  0  0
   -0.0000  -18.0000    0.0000 C   0  0  0  0  0  0  0  0  0  0  0  0
   -0.0000  -19.5000    0.0000 C   0  0  0  0  0  0  0  0  0  0  0  0
   -0.0000  -21.0000    0.0000 C   0  0  0  0  0  0  0  0  0  0  0  0
   -0.0000  -22.5000    0.0000 C   0  0  0  0  0  0  0  0  0  0  0  0
   -0.0000  -24.0000    0.0000 C   0  0  0  0  0  0  0  0  0  0  0  0
   -0.0000  -25.5000    0.0000 C   0  0  0  0  0  0  0  0  0  0  0  0
   -0.0000  -27.0000    0.0000 C   0  0  0  0  0  0  0  0  0  0  0  0
   -0.0000  -28.5000    0.0000 C   0  0  0  0  0  0  0  0  0  0  0  0
   -0.0000  -30.0000    0.0000 C   0  0  0  0  0  0  0  0  0  0  0  0
   -0.0000  -31.5000    0.0000 C   0  0  0  0  0  0  0  0  0  0  0  0
   -0.0000  -33.0000    0.0000 C   0  0  0  0  0  0  0  0  0  0  0  0
   -0.0000  -34.5000    0.0000 C   0  0  0  0  0  0  0  0  0  0  0  0
   -0.0000  -36.0000    0.0000 C   0  0  0  0  0  0  0  0  0  0  0  0
   -0.0000  -37.5000    0.0000 C   0  0  0  0  0  0  0  0  0  0  0  0
   -0.0000  -39.0000    0.0000 C   0  0  0  0  0  0  0  0  0  0  0  0
   -0.0000  -40.5000    0.0000 C   0  0  0  0  0  0  0  0  0  0  0  0
   -0.0000  -42.0000    0.0000 C   0  0  0  0  0  0  0  0  0  0  0  0
   -0.0000  -43.5000    0.0000 C   0  0  0  0  0  0  0  0  0  0  0  0
   -0.0000  -45.0000    0.0000 C   0  0  0  0  0  0  0  0  0  0  0  0
   -0.0000  -46.5000    0.0000 C   0  0  0  0  0  0  0  0  0  0  0  0
   -0.0000  -48.0000    0.0000 C   0  0  0  0  0  0  0  0  0  0  0  0
   -0.0000  -49.5000    0.0000 C   0  0  0  0  0  0  0  0  0  0  0  0
   -0.0000  -51.0000    0.0000 C   0  0  0  0  0  0  0  0  0  0  0  0
   -0.0000  -52.5000    0.0000 C   0  0  0  0  0  0  0  0  0  0  0  0
   -0.0000  -54.0000    0.0000 C   0  0  0  0  0  0  0  0  0  0  0  0
   -0.0000  -55.5000    0.0000 C   0  0  0  0  0  0  0  0  0  0  0  0
   -0.0000  -57.0000    0.0000 C   0  0  0  0  0  0  0  0  0  0  0  0
   -0.0000  -58.5000    0.0000 C   0  0  0  0  0  0  0  0  0  0  0  0
   -0.0000  -60.0000    0.0000 C   0  0  0  0  0  0  0  0  0  0  0  0
   -0.0000  -61.5000    0.0000 C   0  0  0  0  0  0  0  0  0  0  0  0
   -0.0000  -63.0000    0.0000 C   0  0  0  0  0  0  0  0  0  0  0  0
   -0.0000  -64.5000    0.0000 C   0  0  0  0  0  0  0  0  0  0  0  0
  1  2  3  0
  2  3  1  0
  3  4  3  0
  4  5  1  0
  5  6  3  0
  6  7  1  0
  7  8  3  0
  8  9  1  0
  9 10  3  0
 10 11  1  0
 11 12  3  0
 12 13  1  0
 13 14  3  0
 14 15  1  0
 15 16  3  0
 16 17  1  0
 17 18  3  0
 18 19  1  0
 19 20  3  0
 20 21  1  0
 21 22  3  0
 22 23  1  0
 23 24  3  0
 24 25  1  0
 25 26  3  0
 26 27  1  0
 27 28  3  0
 28 29  1  0
 29 30  3  0
 30 31  1  0
 31 32  3  0
 32 33  1  0
 33 34  3  0
 34 35  1  0
 35 36  3  0
 36 37  1  0
 37 38  3  0
 38 39  1  0
 39 40  3  0
 40 41  1  0
 41 42  3  0
 42 43  1  0
 43 44  3  0
M  END
>  <Title>  (1056) 
idABMRgen14

$$$$

     RDKit          2D

 36 40  0  0  0  0  0  0  0  0999 V2000
   -5.2500   -3.8971    0.0000 C   0  0  0  0  0  0  0  0  0  0  0  0
   -3.7500   -3.8971    0.0000 C   0  0  0  0  0  0  0  0  0  0  0  0
   -3.0000   -2.5981    0.0000 C   0  0  0  0  0  0  0  0  0  0  0  0
   -1.5000   -2.5981    0.0000 C   0  0  0  0  0  0  0  0  0  0  0  0
   -0.7500   -3.8971    0.0000 C   0  0  0  0  0  0  0  0  0  0  0  0
    0.7500   -3.8971    0.0000 C   0  0  0  0  0  0  0  0  0  0  0  0
    1.5000   -2.5981    0.0000 C   0  0  0  0  0  0  0  0  0  0  0  0
    3.0000   -2.5981    0.0000 C   0  0  0  0  0  0  0  0  0  0  0  0
    3.7500   -1.2990    0.0000 O   0  0  0  0  0  0  0  0  0  0  0  0
    3.7500   -3.8971    0.0000 N   0  0  0  0  0  0  0  0  0  0  0  0
    5.2500   -3.8971    0.0000 C   0  0  0  0  0  0  0  0  0  0  0  0
    6.1317   -2.6836    0.0000 N   0  0  0  0  0  0  0  0  0  0  0  0
    7.5583   -3.1471    0.0000 N   0  0  0  0  0  0  0  0  0  0  0  0
    7.5583   -4.6471    0.0000 N   0  0  0  0  0  0  0  0  0  0  0  0
    6.1317   -5.1106    0.0000 N   0  0  0  0  0  0  0  0  0  0  0  0
    5.6682   -6.5372    0.0000 C   0  0  0  0  0  0  0  0  0  0  0  0
    6.5498   -7.7508    0.0000 C   0  0  0  0  0  0  0  0  0  0  0  0
    5.6682   -8.9643    0.0000 C   0  0  0  0  0  0  0  0  0  0  0  0
    4.2416   -8.5008    0.0000 C   0  0  0  0  0  0  0  0  0  0  0  0
    3.0280   -9.3824    0.0000 C   0  0  0  0  0  0  0  0  0  0  0  0
    3.1848  -10.8742    0.0000 O   0  0  0  0  0  0  0  0  0  0  0  0
    1.6577   -8.7723    0.0000 N   0  0  0  0  0  0  0  0  0  0  0  0
    0.4442   -9.6540    0.0000 C   0  0  0  0  0  0  0  0  0  0  0  0
   -0.9261   -9.0439    0.0000 N   0  0  0  0  0  0  0  0  0  0  0  0
   -2.1396   -9.9256    0.0000 N   0  0  0  0  0  0  0  0  0  0  0  0
   -1.9829  -11.4174    0.0000 N   0  0  0  0  0  0  0  0  0  0  0  0
   -0.6125  -12.0275    0.0000 N   0  0  0  0  0  0  0  0  0  0  0  0
    0.6010  -11.1458    0.0000 N   0  0  0  0  0  0  0  0  0  0  0  0
    4.2416   -7.0008    0.0000 C   0  0  0  0  0  0  0  0  0  0  0  0
    3.0280   -6.1191    0.0000 O   0  0  0  0  0  0  0  0  0  0  0  0
    0.7500   -1.2990    0.0000 C   0  0  0  0  0  0  0  0  0  0  0  0
    1.5000    0.0000    0.0000 C   0  0  0  0  0  0  0  0  0  0  0  0
    0.7500    1.2990    0.0000 C   0  0  0  0  0  0  0  0  0  0  0  0
   -0.7500    1.2990    0.0000 C   0  0  0  0  0  0  0  0  0  0  0  0
   -1.5000    0.0000    0.0000 C   0  0  0  0  0  0  0  0  0  0  0  0
   -0.7500   -1.2990    0.0000 C   0  0  0  0  0  0  0  0  0  0  0  0
  1  2  1  0
  2  3  1  0
  3  4  1  0
  4  5  1  0
  5  6  1  0
  6  7  1  0
  7  8  1  0
  8  9  2  0
  8 10  1  0
 10 11  1  0
 11 12  2  0
 12 13  1  0
 13 14  2  0
 14 15  1  0
 15 16  1  0
 16 17  2  0
 17 18  1  0
 18 19  2  0
 19 20  1  0
 20 21  2  0
 20 22  1  0
 22 23  1  0
 23 24  2  0
 24 25  1  0
 25 26  2  0
 26 27  1  0
 27 28  2  0
 19 29  1  0
 29 30  2  0
  7 31  1  0
 31 32  2  0
 32 33  1  0
 33 34  2  0
 34 35  1  0
 35 36  2  0
 36  4  1  0
 15 11  1  0
 29 16  1  0
 36 31  1  0
 28 23  1  0
M  END
>  <Title>  (1057) 
idABMSgen14

$$$$

     RDKit          2D

 10  9  0  0  0  0  0  0  0  0999 V2000
    0.0000    0.0000    0.0000 C   0  0  0  0  0  0  0  0  0  0  0  0
    1.2990    0.7500    0.0000 C   0  0  0  0  0  0  0  0  0  0  0  0
    2.5981   -0.0000    0.0000 C   0  0  0  0  0  0  0  0  0  0  0  0
    3.8971    0.7500    0.0000 C   0  0  0  0  0  0  0  0  0  0  0  0
    5.1962   -0.0000    0.0000 C   0  0  0  0  0  0  0  0  0  0  0  0
    6.4952    0.7500    0.0000 C   0  0  0  0  0  0  0  0  0  0  0  0
    5.1962   -1.5000    0.0000 N   0  0  0  0  0  0  0  0  0  0  0  0
    6.4952   -2.2500    0.0000 C   0  0  0  0  0  0  0  0  0  0  0  0
    6.4952   -3.7500    0.0000 C   0  0  0  0  0  0  0  0  0  0  0  0
    7.7942   -1.5000    0.0000 C   0  0  0  0  0  0  0  0  0  0  0  0
  1  2  2  0
  2  3  1  0
  3  4  1  0
  4  5  1  0
  5  6  1  0
  5  7  1  0
  7  8  1  0
  8  9  1  0
  8 10  1  0
M  END
>  <Title>  (1058) 
idABMTgen14

$$$$

     RDKit          2D

 11 10  0  0  0  0  0  0  0  0999 V2000
    0.0000    0.0000    0.0000 C   0  0  0  0  0  0  0  0  0  0  0  0
    1.2990    0.7500    0.0000 C   0  0  0  0  0  0  0  0  0  0  0  0
    2.5981   -0.0000    0.0000 C   0  0  0  0  0  0  0  0  0  0  0  0
    3.8971    0.7500    0.0000 N   0  0  0  0  0  0  0  0  0  0  0  0
    5.1962   -0.0000    0.0000 C   0  0  0  0  0  0  0  0  0  0  0  0
    5.1962   -1.5000    0.0000 O   0  0  0  0  0  0  0  0  0  0  0  0
    6.4952    0.7500    0.0000 C   0  0  0  0  0  0  0  0  0  0  0  0
    7.7942   -0.0000    0.0000 C   0  0  0  0  0  0  0  0  0  0  0  0
    9.0933    0.7500    0.0000 C   0  0  0  0  0  0  0  0  0  0  0  0
    7.7942   -1.5000    0.0000 N   0  0  0  0  0  0  0  0  0  0  0  0
    9.0933   -2.2500    0.0000 C   0  0  0  0  0  0  0  0  0  0  0  0
  1  2  1  0
  2  3  2  3
  3  4  1  0
  4  5  1  0
  5  6  2  0
  5  7  1  0
  7  8  1  0
  8  9  1  0
  8 10  1  0
 10 11  1  0
M  END
>  <Title>  (1059) 
idABMUgen14

$$$$

     RDKit          2D

 34 33  0  0  0  0  0  0  0  0999 V2000
    0.0000    0.0000    0.0000 C   0  0  0  0  0  0  0  0  0  0  0  0
   -0.0000   -1.5000    0.0000 C   0  0  0  0  0  0  0  0  0  0  0  0
   -0.0000   -3.0000    0.0000 C   0  0  0  0  0  0  0  0  0  0  0  0
   -0.0000   -4.5000    0.0000 C   0  0  0  0  0  0  0  0  0  0  0  0
   -0.0000   -6.0000    0.0000 C   0  0  0  0  0  0  0  0  0  0  0  0
   -0.0000   -7.5000    0.0000 C   0  0  0  0  0  0  0  0  0  0  0  0
   -0.0000   -9.0000    0.0000 C   0  0  0  0  0  0  0  0  0  0  0  0
   -0.0000  -10.5000    0.0000 C   0  0  0  0  0  0  0  0  0  0  0  0
   -0.0000  -12.0000    0.0000 C   0  0  0  0  0  0  0  0  0  0  0  0
   -0.0000  -13.5000    0.0000 C   0  0  0  0  0  0  0  0  0  0  0  0
   -0.0000  -15.0000    0.0000 C   0  0  0  0  0  0  0  0  0  0  0  0
   -0.0000  -16.5000    0.0000 C   0  0  0  0  0  0  0  0  0  0  0  0
   -0.0000  -18.0000    0.0000 C   0  0  0  0  0  0  0  0  0  0  0  0
   -0.0000  -19.5000    0.0000 C   0  0  0  0  0  0  0  0  0  0  0  0
   -0.0000  -21.0000    0.0000 C   0  0  0  0  0  0  0  0  0  0  0  0
   -0.0000  -22.5000    0.0000 C   0  0  0  0  0  0  0  0  0  0  0  0
   -0.0000  -24.0000    0.0000 C   0  0  0  0  0  0  0  0  0  0  0  0
   -0.0000  -25.5000    0.0000 C   0  0  0  0  0  0  0  0  0  0  0  0
   -0.0000  -27.0000    0.0000 C   0  0  0  0  0  0  0  0  0  0  0  0
   -0.0000  -28.5000    0.0000 C   0  0  0  0  0  0  0  0  0  0  0  0
   -0.0000  -30.0000    0.0000 C   0  0  0  0  0  0  0  0  0  0  0  0
   -0.0000  -31.5000    0.0000 C   0  0  0  0  0  0  0  0  0  0  0  0
   -0.0000  -33.0000    0.0000 C   0  0  0  0  0  0  0  0  0  0  0  0
   -0.0000  -34.5000    0.0000 C   0  0  0  0  0  0  0  0  0  0  0  0
   -0.0000  -36.0000    0.0000 C   0  0  0  0  0  0  0  0  0  0  0  0
   -0.0000  -37.5000    0.0000 C   0  0  0  0  0  0  0  0  0  0  0  0
   -0.0000  -39.0000    0.0000 C   0  0  0  0  0  0  0  0  0  0  0  0
   -0.0000  -40.5000    0.0000 C   0  0  0  0  0  0  0  0  0  0  0  0
   -0.0000  -42.0000    0.0000 C   0  0  0  0  0  0  0  0  0  0  0  0
   -0.0000  -43.5000    0.0000 C   0  0  0  0  0  0  0  0  0  0  0  0
   -0.0000  -45.0000    0.0000 C   0  0  0  0  0  0  0  0  0  0  0  0
   -0.0000  -46.5000    0.0000 C   0  0  0  0  0  0  0  0  0  0  0  0
   -0.0000  -48.0000    0.0000 C   0  0  0  0  0  0  0  0  0  0  0  0
    1.2990  -48.7500    0.0000 C   0  0  0  0  0  0  0  0  0  0  0  0
  1  2  3  0
  2  3  1  0
  3  4  3  0
  4  5  1  0
  5  6  3  0
  6  7  1  0
  7  8  3  0
  8  9  1  0
  9 10  3  0
 10 11  1  0
 11 12  3  0
 12 13  1  0
 13 14  3  0
 14 15  1  0
 15 16  3  0
 16 17  1  0
 17 18  3  0
 18 19  1  0
 19 20  3  0
 20 21  1  0
 21 22  3  0
 22 23  1  0
 23 24  3  0
 24 25  1  0
 25 26  3  0
 26 27  1  0
 27 28  3  0
 28 29  1  0
 29 30  3  0
 30 31  1  0
 31 32  3  0
 32 33  1  0
 33 34  1  0
M  END
>  <Title>  (1060) 
idABMVgen14

$$$$

     RDKit          2D

  9  8  0  0  0  0  0  0  0  0999 V2000
    0.0000    0.0000    0.0000 C   0  0  0  0  0  0  0  0  0  0  0  0
    1.2990    0.7500    0.0000 C   0  0  0  0  0  0  0  0  0  0  0  0
    2.5981   -0.0000    0.0000 C   0  0  0  0  0  0  0  0  0  0  0  0
    3.8971    0.7500    0.0000 C   0  0  0  0  0  0  0  0  0  0  0  0
    5.1962   -0.0000    0.0000 C   0  0  0  0  0  0  0  0  0  0  0  0
    6.4952    0.7500    0.0000 C   0  0  0  0  0  0  0  0  0  0  0  0
    7.7942   -0.0000    0.0000 C   0  0  0  0  0  0  0  0  0  0  0  0
    9.0933    0.7500    0.0000 C   0  0  0  0  0  0  0  0  0  0  0  0
    7.7942   -1.5000    0.0000 C   0  0  0  0  0  0  0  0  0  0  0  0
  1  2  1  0
  2  3  2  3
  3  4  1  0
  4  5  1  0
  5  6  2  3
  6  7  1  0
  7  8  1  0
  7  9  1  0
M  END
>  <Title>  (1061) 
idABMWgen14

$$$$

     RDKit          2D

  9  8  0  0  0  0  0  0  0  0999 V2000
    0.0000    0.0000    0.0000 C   0  0  0  0  0  0  0  0  0  0  0  0
    1.2990    0.7500    0.0000 C   0  0  0  0  0  0  0  0  0  0  0  0
    2.5981   -0.0000    0.0000 C   0  0  0  0  0  0  0  0  0  0  0  0
    3.8971    0.7500    0.0000 C   0  0  0  0  0  0  0  0  0  0  0  0
    5.1962   -0.0000    0.0000 C   0  0  0  0  0  0  0  0  0  0  0  0
    3.8971    2.2500    0.0000 C   0  0  0  0  0  0  0  0  0  0  0  0
    5.1962    3.0000    0.0000 C   0  0  0  0  0  0  0  0  0  0  0  0
    5.1962    4.5000    0.0000 C   0  0  0  0  0  0  0  0  0  0  0  0
    6.4952    2.2500    0.0000 N   0  0  0  0  0  0  0  0  0  0  0  0
  1  2  1  0
  2  3  1  0
  3  4  1  0
  4  5  1  0
  4  6  1  0
  6  7  1  0
  7  8  1  0
  7  9  1  0
M  END
>  <Title>  (1062) 
idABMXgen14

$$$$

     RDKit          2D

 30 34  0  0  0  0  0  0  0  0999 V2000
   -2.6401   -3.1891    0.0000 C   0  0  0  0  0  0  0  0  0  0  0  0
   -1.2135   -2.7256    0.0000 C   0  0  0  0  0  0  0  0  0  0  0  0
   -0.0000   -3.6073    0.0000 C   0  0  0  0  0  0  0  0  0  0  0  0
    1.2135   -2.7256    0.0000 C   0  0  0  0  0  0  0  0  0  0  0  0
    2.6401   -3.1891    0.0000 C   0  0  0  0  0  0  0  0  0  0  0  0
    3.8536   -2.3075    0.0000 N   0  0  0  0  0  0  0  0  0  0  0  0
    5.0672   -3.1891    0.0000 N   0  0  0  0  0  0  0  0  0  0  0  0
    4.6036   -4.6157    0.0000 N   0  0  0  0  0  0  0  0  0  0  0  0
    3.1036   -4.6157    0.0000 N   0  0  0  0  0  0  0  0  0  0  0  0
    2.2220   -5.8293    0.0000 N   0  0  0  0  0  0  0  0  0  0  0  0
    2.6855   -7.2558    0.0000 C   0  0  0  0  0  0  0  0  0  0  0  0
    1.4720   -8.1375    0.0000 C   0  0  0  0  0  0  0  0  0  0  0  0
    0.2584   -7.2558    0.0000 N   0  0  0  0  0  0  0  0  0  0  0  0
   -1.1682   -7.7194    0.0000 C   0  0  0  0  0  0  0  0  0  0  0  0
   -1.4800   -9.1866    0.0000 O   0  0  0  0  0  0  0  0  0  0  0  0
   -2.2829   -6.7157    0.0000 N   0  0  0  0  0  0  0  0  0  0  0  0
   -3.7095   -7.1792    0.0000 C   0  0  0  0  0  0  0  0  0  0  0  0
   -4.8242   -6.1755    0.0000 N   0  0  0  0  0  0  0  0  0  0  0  0
   -6.2508   -6.6390    0.0000 N   0  0  0  0  0  0  0  0  0  0  0  0
   -6.5626   -8.1062    0.0000 N   0  0  0  0  0  0  0  0  0  0  0  0
   -5.4479   -9.1099    0.0000 N   0  0  0  0  0  0  0  0  0  0  0  0
   -4.0213   -8.6464    0.0000 N   0  0  0  0  0  0  0  0  0  0  0  0
    0.7220   -5.8293    0.0000 C   0  0  0  0  0  0  0  0  0  0  0  0
   -0.1597   -4.6157    0.0000 O   0  0  0  0  0  0  0  0  0  0  0  0
    0.7500   -1.2990    0.0000 C   0  0  0  0  0  0  0  0  0  0  0  0
    1.5000    0.0000    0.0000 C   0  0  0  0  0  0  0  0  0  0  0  0
    0.7500    1.2990    0.0000 C   0  0  0  0  0  0  0  0  0  0  0  0
   -0.7500    1.2990    0.0000 C   0  0  0  0  0  0  0  0  0  0  0  0
   -1.5000    0.0000    0.0000 C   0  0  0  0  0  0  0  0  0  0  0  0
   -0.7500   -1.2990    0.0000 C   0  0  0  0  0  0  0  0  0  0  0  0
  1  2  1  0
  2  3  2  0
  3  4  1  0
  4  5  1  0
  5  6  2  0
  6  7  1  0
  7  8  2  0
  8  9  1  0
  9 10  1  0
 10 11  1  0
 11 12  1  0
 12 13  1  0
 13 14  1  0
 14 15  2  0
 14 16  1  0
 16 17  1  0
 17 18  2  0
 18 19  1  0
 19 20  2  0
 20 21  1  0
 21 22  2  0
 13 23  1  0
 23 24  2  0
  4 25  1  0
 25 26  2  0
 26 27  1  0
 27 28  2  0
 28 29  1  0
 29 30  2  0
 30  2  1  0
  9  5  1  0
 23 10  1  0
 30 25  1  0
 22 17  1  0
M  END
>  <Title>  (1063) 
idABMYgen14

$$$$

     RDKit          2D

  7  7  0  0  0  0  0  0  0  0999 V2000
    3.5260   -1.2990    0.0000 C   0  0  0  0  0  0  0  0  0  0  0  0
    2.7760    0.0000    0.0000 C   0  0  0  0  0  0  0  0  0  0  0  0
    1.2760    0.0000    0.0000 C   0  0  0  0  0  0  0  0  0  0  0  0
    0.3943    1.2135    0.0000 C   0  0  0  0  0  0  0  0  0  0  0  0
   -1.0323    0.7500    0.0000 C   0  0  0  0  0  0  0  0  0  0  0  0
   -1.0323   -0.7500    0.0000 C   0  0  0  0  0  0  0  0  0  0  0  0
    0.3943   -1.2135    0.0000 C   0  0  0  0  0  0  0  0  0  0  0  0
  1  2  2  0
  2  3  1  0
  3  4  2  0
  4  5  1  0
  5  6  1  0
  6  7  2  0
  7  3  1  0
M  END
>  <Title>  (1064) 
idABMZgen14

$$$$

     RDKit          2D

 10  9  0  0  0  0  0  0  0  0999 V2000
    0.0000    0.0000    0.0000 C   0  0  0  0  0  0  0  0  0  0  0  0
    1.2990    0.7500    0.0000 C   0  0  0  0  0  0  0  0  0  0  0  0
    2.5981   -0.0000    0.0000 C   0  0  0  0  0  0  0  0  0  0  0  0
    3.8971    0.7500    0.0000 C   0  0  0  0  0  0  0  0  0  0  0  0
    5.1962   -0.0000    0.0000 C   0  0  0  0  0  0  0  0  0  0  0  0
    3.8971    2.2500    0.0000 C   0  0  0  0  0  0  0  0  0  0  0  0
    5.1962    3.0000    0.0000 C   0  0  0  0  0  0  0  0  0  0  0  0
    5.1962    4.5000    0.0000 C   0  0  0  0  0  0  0  0  0  0  0  0
    6.4952    2.2500    0.0000 N   0  0  0  0  0  0  0  0  0  0  0  0
    7.7942    3.0000    0.0000 C   0  0  0  0  0  0  0  0  0  0  0  0
  1  2  1  0
  2  3  1  0
  3  4  1  0
  4  5  1  0
  4  6  1  0
  6  7  1  0
  7  8  1  0
  7  9  1  0
  9 10  1  0
M  END
>  <Title>  (1065) 
idABNAgen14

$$$$

     RDKit          2D

  6  5  0  0  0  0  0  0  0  0999 V2000
    0.0000    0.0000    0.0000 C   0  0  0  0  0  0  0  0  0  0  0  0
   -0.0000   -1.5000    0.0000 C   0  0  0  0  0  0  0  0  0  0  0  0
   -0.0000   -3.0000    0.0000 C   0  0  0  0  0  0  0  0  0  0  0  0
    1.2990   -3.7500    0.0000 C   0  0  0  0  0  0  0  0  0  0  0  0
    1.2990   -5.2500    0.0000 C   0  0  0  0  0  0  0  0  0  0  0  0
    2.5981   -3.0000    0.0000 C   0  0  0  0  0  0  0  0  0  0  0  0
  1  2  3  0
  2  3  1  0
  3  4  1  0
  4  5  1  0
  4  6  1  0
M  END
>  <Title>  (1066) 
idABNBgen14

$$$$

     RDKit          2D

 15 16  0  0  0  0  0  0  0  0999 V2000
   -0.7500   -3.8971    0.0000 O   0  0  0  0  0  0  0  0  0  0  0  0
    0.7500   -3.8971    0.0000 C   0  0  0  0  0  0  0  0  0  0  0  0
    1.5000   -5.1962    0.0000 C   0  0  0  0  0  0  0  0  0  0  0  0
    0.7500   -6.4952    0.0000 C   0  0  0  0  0  0  0  0  0  0  0  0
    1.3601   -7.8655    0.0000 C   0  0  0  0  0  0  0  0  0  0  0  0
    0.2454   -8.8692    0.0000 C   0  0  0  0  0  0  0  0  0  0  0  0
   -1.0537   -8.1192    0.0000 C   0  0  0  0  0  0  0  0  0  0  0  0
   -0.7418   -6.6520    0.0000 C   0  0  0  0  0  0  0  0  0  0  0  0
    1.5000   -2.5981    0.0000 N   0  0  0  0  0  0  0  0  0  0  0  0
    0.7500   -1.2990    0.0000 C   0  0  0  0  0  0  0  0  0  0  0  0
    1.5000    0.0000    0.0000 C   0  0  0  0  0  0  0  0  0  0  0  0
    0.7500    1.2990    0.0000 C   0  0  0  0  0  0  0  0  0  0  0  0
   -0.7500    1.2990    0.0000 C   0  0  0  0  0  0  0  0  0  0  0  0
   -1.5000    0.0000    0.0000 C   0  0  0  0  0  0  0  0  0  0  0  0
   -0.7500   -1.2990    0.0000 C   0  0  0  0  0  0  0  0  0  0  0  0
  1  2  1  0
  2  3  1  0
  3  4  1  0
  4  5  2  0
  5  6  1  0
  6  7  2  0
  7  8  1  0
  2  9  1  0
  9 10  1  0
 10 11  2  0
 11 12  1  0
 12 13  2  0
 13 14  1  0
 14 15  2  0
  8  4  1  0
 15 10  1  0
M  END
>  <Title>  (1067) 
idABNCgen14

$$$$

     RDKit          2D

 40 44  0  0  0  0  0  0  0  0999 V2000
   -8.2500   -6.4952    0.0000 C   0  0  0  0  0  0  0  0  0  0  0  0
   -7.5000   -5.1962    0.0000 C   0  0  0  0  0  0  0  0  0  0  0  0
   -6.0000   -5.1962    0.0000 C   0  0  0  0  0  0  0  0  0  0  0  0
   -5.2500   -3.8971    0.0000 N   0  0  0  0  0  0  0  0  0  0  0  0
   -3.7500   -3.8971    0.0000 C   0  0  0  0  0  0  0  0  0  0  0  0
   -3.0000   -5.1962    0.0000 O   0  0  0  0  0  0  0  0  0  0  0  0
   -3.0000   -2.5981    0.0000 C   0  0  0  0  0  0  0  0  0  0  0  0
   -1.5000   -2.5981    0.0000 C   0  0  0  0  0  0  0  0  0  0  0  0
   -0.7500   -3.8971    0.0000 C   0  0  0  0  0  0  0  0  0  0  0  0
    0.7500   -3.8971    0.0000 C   0  0  0  0  0  0  0  0  0  0  0  0
    1.5000   -2.5981    0.0000 C   0  0  0  0  0  0  0  0  0  0  0  0
    3.0000   -2.5981    0.0000 C   0  0  0  0  0  0  0  0  0  0  0  0
    3.7500   -1.2990    0.0000 O   0  0  0  0  0  0  0  0  0  0  0  0
    3.7500   -3.8971    0.0000 N   0  0  0  0  0  0  0  0  0  0  0  0
    5.2500   -3.8971    0.0000 C   0  0  0  0  0  0  0  0  0  0  0  0
    6.1317   -2.6836    0.0000 N   0  0  0  0  0  0  0  0  0  0  0  0
    7.5583   -3.1471    0.0000 N   0  0  0  0  0  0  0  0  0  0  0  0
    7.5583   -4.6471    0.0000 N   0  0  0  0  0  0  0  0  0  0  0  0
    6.1317   -5.1106    0.0000 N   0  0  0  0  0  0  0  0  0  0  0  0
    5.6682   -6.5372    0.0000 N   0  0  0  0  0  0  0  0  0  0  0  0
    6.5498   -7.7508    0.0000 C   0  0  0  0  0  0  0  0  0  0  0  0
    5.6682   -8.9643    0.0000 C   0  0  0  0  0  0  0  0  0  0  0  0
    4.2416   -8.5008    0.0000 N   0  0  0  0  0  0  0  0  0  0  0  0
    3.0280   -9.3824    0.0000 C   0  0  0  0  0  0  0  0  0  0  0  0
    3.1848  -10.8742    0.0000 O   0  0  0  0  0  0  0  0  0  0  0  0
    1.6577   -8.7723    0.0000 N   0  0  0  0  0  0  0  0  0  0  0  0
    0.4442   -9.6540    0.0000 C   0  0  0  0  0  0  0  0  0  0  0  0
   -0.9261   -9.0439    0.0000 N   0  0  0  0  0  0  0  0  0  0  0  0
   -2.1396   -9.9256    0.0000 N   0  0  0  0  0  0  0  0  0  0  0  0
   -1.9829  -11.4174    0.0000 N   0  0  0  0  0  0  0  0  0  0  0  0
   -0.6125  -12.0275    0.0000 N   0  0  0  0  0  0  0  0  0  0  0  0
    0.6010  -11.1458    0.0000 N   0  0  0  0  0  0  0  0  0  0  0  0
    4.2416   -7.0008    0.0000 C   0  0  0  0  0  0  0  0  0  0  0  0
    3.0280   -6.1191    0.0000 O   0  0  0  0  0  0  0  0  0  0  0  0
    0.7500   -1.2990    0.0000 C   0  0  0  0  0  0  0  0  0  0  0  0
    1.5000    0.0000    0.0000 C   0  0  0  0  0  0  0  0  0  0  0  0
    0.7500    1.2990    0.0000 C   0  0  0  0  0  0  0  0  0  0  0  0
   -0.7500    1.2990    0.0000 C   0  0  0  0  0  0  0  0  0  0  0  0
   -1.5000    0.0000    0.0000 C   0  0  0  0  0  0  0  0  0  0  0  0
   -0.7500   -1.2990    0.0000 C   0  0  0  0  0  0  0  0  0  0  0  0
  1  2  1  0
  2  3  2  3
  3  4  1  0
  4  5  1  0
  5  6  2  0
  5  7  1  0
  7  8  1  0
  8  9  2  0
  9 10  1  0
 10 11  2  0
 11 12  1  0
 12 13  2  0
 12 14  1  0
 14 15  1  0
 15 16  2  0
 16 17  1  0
 17 18  2  0
 18 19  1  0
 19 20  1  0
 20 21  1  0
 21 22  1  0
 22 23  1  0
 23 24  1  0
 24 25  2  0
 24 26  1  0
 26 27  1  0
 27 28  2  0
 28 29  1  0
 29 30  2  0
 30 31  1  0
 31 32  2  0
 23 33  1  0
 33 34  2  0
 11 35  1  0
 35 36  2  0
 36 37  1  0
 37 38  2  0
 38 39  1  0
 39 40  2  0
 40  8  1  0
 19 15  1  0
 33 20  1  0
 40 35  1  0
 32 27  1  0
M  END
>  <Title>  (1068) 
idABNDgen14

$$$$

     RDKit          2D

  7  6  0  0  0  0  0  0  0  0999 V2000
    0.0000    0.0000    0.0000 C   0  0  0  0  0  0  0  0  0  0  0  0
    1.2990    0.7500    0.0000 C   0  0  0  0  0  0  0  0  0  0  0  0
    2.5981   -0.0000    0.0000 C   0  0  0  0  0  0  0  0  0  0  0  0
    3.8971    0.7500    0.0000 C   0  0  0  0  0  0  0  0  0  0  0  0
    3.8971    2.2500    0.0000 O   0  0  0  0  0  0  0  0  0  0  0  0
    5.1962   -0.0000    0.0000 C   0  0  0  0  0  0  0  0  0  0  0  0
    6.4952    0.7500    0.0000 C   0  0  0  0  0  0  0  0  0  0  0  0
  1  2  1  0
  2  3  1  0
  3  4  1  0
  4  5  1  0
  4  6  1  0
  6  7  1  0
M  END
>  <Title>  (1069) 
idABNEgen14

$$$$

     RDKit          2D

 14 14  0  0  0  0  0  0  0  0999 V2000
    9.7500   -3.8971    0.0000 C   0  0  0  0  0  0  0  0  0  0  0  0
    8.2500   -3.8971    0.0000 C   0  0  0  0  0  0  0  0  0  0  0  0
    7.5000   -2.5981    0.0000 C   0  0  0  0  0  0  0  0  0  0  0  0
    6.0000   -2.5981    0.0000 C   0  0  0  0  0  0  0  0  0  0  0  0
    5.2500   -3.8971    0.0000 O   0  0  0  0  0  0  0  0  0  0  0  0
    5.2500   -1.2990    0.0000 N   0  0  0  0  0  0  0  0  0  0  0  0
    3.7500   -1.2990    0.0000 C   0  0  0  0  0  0  0  0  0  0  0  0
    3.0000    0.0000    0.0000 C   0  0  0  0  0  0  0  0  0  0  0  0
    1.5000    0.0000    0.0000 C   0  0  0  0  0  0  0  0  0  0  0  0
    0.7500   -1.2990    0.0000 C   0  0  0  0  0  0  0  0  0  0  0  0
   -0.7500   -1.2990    0.0000 C   0  0  0  0  0  0  0  0  0  0  0  0
   -1.5000    0.0000    0.0000 C   0  0  0  0  0  0  0  0  0  0  0  0
   -0.7500    1.2990    0.0000 N   0  0  0  0  0  0  0  0  0  0  0  0
    0.7500    1.2990    0.0000 C   0  0  0  0  0  0  0  0  0  0  0  0
  1  2  1  0
  2  3  1  0
  3  4  1  0
  4  5  2  0
  4  6  1  0
  6  7  1  0
  7  8  1  0
  8  9  1  0
  9 10  2  0
 10 11  1  0
 11 12  2  0
 12 13  1  0
 13 14  2  0
 14  9  1  0
M  END
>  <Title>  (1070) 
idABNFgen14

$$$$

     RDKit          2D

  8  7  0  0  0  0  0  0  0  0999 V2000
    0.0000    0.0000    0.0000 C   0  0  0  0  0  0  0  0  0  0  0  0
    1.2990    0.7500    0.0000 C   0  0  0  0  0  0  0  0  0  0  0  0
    2.5981   -0.0000    0.0000 C   0  0  0  0  0  0  0  0  0  0  0  0
    3.8971    0.7500    0.0000 N   0  0  0  0  0  0  0  0  0  0  0  0
    5.1962   -0.0000    0.0000 C   0  0  0  0  0  0  0  0  0  0  0  0
    6.4952    0.7500    0.0000 C   0  0  0  0  0  0  0  0  0  0  0  0
    5.1962   -1.5000    0.0000 C   0  0  0  0  0  0  0  0  0  0  0  0
    6.4952   -2.2500    0.0000 C   0  0  0  0  0  0  0  0  0  0  0  0
  1  2  1  0
  2  3  1  0
  3  4  1  0
  4  5  1  0
  5  6  1  0
  5  7  1  0
  7  8  1  0
M  END
>  <Title>  (1071) 
idABNGgen14

$$$$

     RDKit          2D

 10 10  0  0  0  0  0  0  0  0999 V2000
    5.7760   -2.5981    0.0000 C   0  0  0  0  0  0  0  0  0  0  0  0
    5.0260   -1.2990    0.0000 C   0  0  0  0  0  0  0  0  0  0  0  0
    3.5260   -1.2990    0.0000 C   0  0  0  0  0  0  0  0  0  0  0  0
    2.7760    0.0000    0.0000 C   0  0  0  0  0  0  0  0  0  0  0  0
    3.5260    1.2990    0.0000 O   0  0  0  0  0  0  0  0  0  0  0  0
    1.2760    0.0000    0.0000 N   0  0  0  0  0  0  0  0  0  0  0  0
    0.3943    1.2135    0.0000 C   0  0  0  0  0  0  0  0  0  0  0  0
   -1.0323    0.7500    0.0000 C   0  0  0  0  0  0  0  0  0  0  0  0
   -1.0323   -0.7500    0.0000 C   0  0  0  0  0  0  0  0  0  0  0  0
    0.3943   -1.2135    0.0000 C   0  0  0  0  0  0  0  0  0  0  0  0
  1  2  1  0
  2  3  1  0
  3  4  1  0
  4  5  2  0
  4  6  1  0
  6  7  1  0
  7  8  2  0
  8  9  1  0
  9 10  1  0
 10  6  1  0
M  END
>  <Title>  (1072) 
idABNHgen14

$$$$

     RDKit          2D

 33 37  0  0  0  0  0  0  0  0999 V2000
   -4.4437   -8.0387    0.0000 C   0  0  0  0  0  0  0  0  0  0  0  0
   -3.1965   -7.2054    0.0000 C   0  0  0  0  0  0  0  0  0  0  0  0
   -2.1358   -8.2660    0.0000 C   0  0  0  0  0  0  0  0  0  0  0  0
   -0.7500   -8.8400    0.0000 C   0  0  0  0  0  0  0  0  0  0  0  0
    0.7500   -8.8400    0.0000 C   0  0  0  0  0  0  0  0  0  0  0  0
    2.1358   -8.2660    0.0000 C   0  0  0  0  0  0  0  0  0  0  0  0
    3.1965   -7.2054    0.0000 C   0  0  0  0  0  0  0  0  0  0  0  0
    3.7705   -5.8195    0.0000 C   0  0  0  0  0  0  0  0  0  0  0  0
    5.2417   -6.1122    0.0000 O   0  0  0  0  0  0  0  0  0  0  0  0
    3.7705   -4.3195    0.0000 N   0  0  0  0  0  0  0  0  0  0  0  0
    3.1965   -2.9337    0.0000 C   0  0  0  0  0  0  0  0  0  0  0  0
    4.5330   -2.2527    0.0000 N   0  0  0  0  0  0  0  0  0  0  0  0
    4.2983   -0.7712    0.0000 N   0  0  0  0  0  0  0  0  0  0  0  0
    2.8168   -0.5366    0.0000 N   0  0  0  0  0  0  0  0  0  0  0  0
    2.1358   -1.8731    0.0000 N   0  0  0  0  0  0  0  0  0  0  0  0
    0.7500   -1.2990    0.0000 C   0  0  0  0  0  0  0  0  0  0  0  0
    1.5000    0.0000    0.0000 C   0  0  0  0  0  0  0  0  0  0  0  0
    0.7500    1.2990    0.0000 C   0  0  0  0  0  0  0  0  0  0  0  0
   -0.7500    1.2990    0.0000 C   0  0  0  0  0  0  0  0  0  0  0  0
   -1.5000    0.0000    0.0000 C   0  0  0  0  0  0  0  0  0  0  0  0
   -0.7500   -1.2990    0.0000 C   0  0  0  0  0  0  0  0  0  0  0  0
   -2.1358   -1.8731    0.0000 C   0  0  0  0  0  0  0  0  0  0  0  0
   -2.5240   -0.4242    0.0000 C   0  0  0  0  0  0  0  0  0  0  0  0
   -3.9729   -0.0359    0.0000 C   0  0  0  0  0  0  0  0  0  0  0  0
   -5.0336   -1.0966    0.0000 C   0  0  0  0  0  0  0  0  0  0  0  0
   -4.6454   -2.5455    0.0000 C   0  0  0  0  0  0  0  0  0  0  0  0
   -3.1965   -2.9337    0.0000 C   0  0  0  0  0  0  0  0  0  0  0  0
   -3.7705   -4.3195    0.0000 C   0  0  0  0  0  0  0  0  0  0  0  0
   -5.0695   -3.5695    0.0000 C   0  0  0  0  0  0  0  0  0  0  0  0
   -6.3686   -4.3195    0.0000 C   0  0  0  0  0  0  0  0  0  0  0  0
   -6.3686   -5.8195    0.0000 C   0  0  0  0  0  0  0  0  0  0  0  0
   -5.0695   -6.5695    0.0000 C   0  0  0  0  0  0  0  0  0  0  0  0
   -3.7705   -5.8195    0.0000 C   0  0  0  0  0  0  0  0  0  0  0  0
  1  2  1  0
  2  3  1  0
  3  4  1  0
  4  5  1  0
  5  6  1  0
  6  7  1  0
  7  8  1  0
  8  9  2  0
  8 10  1  0
 10 11  1  0
 11 12  2  0
 12 13  1  0
 13 14  2  0
 14 15  1  0
 15 16  1  0
 16 17  2  0
 17 18  1  0
 18 19  2  0
 19 20  1  0
 20 21  2  0
 21 22  1  0
 22 23  2  0
 23 24  1  0
 24 25  2  0
 25 26  1  0
 26 27  2  0
 27 28  1  0
 28 29  2  0
 29 30  1  0
 30 31  2  0
 31 32  1  0
 32 33  2  0
 33  2  1  0
 15 11  1  0
 21 16  1  0
 27 22  1  0
 33 28  1  0
M  END
>  <Title>  (1073) 
idABNIgen14

$$$$

     RDKit          2D

  5  5  0  0  0  0  0  0  0  0999 V2000
    1.2760    0.0000    0.0000 C   0  0  0  0  0  0  0  0  0  0  0  0
    0.3943    1.2135    0.0000 C   0  0  0  0  0  0  0  0  0  0  0  0
   -1.0323    0.7500    0.0000 N   0  0  0  0  0  0  0  0  0  0  0  0
   -1.0323   -0.7500    0.0000 C   0  0  0  0  0  0  0  0  0  0  0  0
    0.3943   -1.2135    0.0000 C   0  0  0  0  0  0  0  0  0  0  0  0
  1  2  2  0
  2  3  1  0
  3  4  1  0
  4  5  2  0
  5  1  1  0
M  END
>  <Title>  (1074) 
idABNJgen14

$$$$

     RDKit          2D

 16 17  0  0  0  0  0  0  0  0999 V2000
   -0.7500   -3.8971    0.0000 O   0  0  0  0  0  0  0  0  0  0  0  0
    0.7500   -3.8971    0.0000 C   0  0  0  0  0  0  0  0  0  0  0  0
    1.5000   -5.1962    0.0000 C   0  0  0  0  0  0  0  0  0  0  0  0
    0.7500   -6.4952    0.0000 C   0  0  0  0  0  0  0  0  0  0  0  0
    1.3601   -7.8655    0.0000 C   0  0  0  0  0  0  0  0  0  0  0  0
    0.2454   -8.8692    0.0000 C   0  0  0  0  0  0  0  0  0  0  0  0
   -1.0537   -8.1192    0.0000 C   0  0  0  0  0  0  0  0  0  0  0  0
   -0.7418   -6.6520    0.0000 C   0  0  0  0  0  0  0  0  0  0  0  0
    1.5000   -2.5981    0.0000 N   0  0  0  0  0  0  0  0  0  0  0  0
    0.7500   -1.2990    0.0000 C   0  0  0  0  0  0  0  0  0  0  0  0
    1.5000    0.0000    0.0000 C   0  0  0  0  0  0  0  0  0  0  0  0
    0.7500    1.2990    0.0000 C   0  0  0  0  0  0  0  0  0  0  0  0
   -0.7500    1.2990    0.0000 C   0  0  0  0  0  0  0  0  0  0  0  0
   -1.5000    2.5981    0.0000 F   0  0  0  0  0  0  0  0  0  0  0  0
   -1.5000    0.0000    0.0000 C   0  0  0  0  0  0  0  0  0  0  0  0
   -0.7500   -1.2990    0.0000 C   0  0  0  0  0  0  0  0  0  0  0  0
  1  2  1  0
  2  3  1  0
  3  4  1  0
  4  5  2  0
  5  6  1  0
  6  7  1  0
  7  8  2  0
  2  9  1  0
  9 10  1  0
 10 11  2  0
 11 12  1  0
 12 13  2  0
 13 14  1  0
 13 15  1  0
 15 16  2  0
  8  4  1  0
 16 10  1  0
M  END
>  <Title>  (1075) 
idABNKgen14

$$$$

     RDKit          2D

  8  8  0  0  0  0  0  0  0  0999 V2000
    3.7500   -1.2990    0.0000 O   0  0  0  0  0  0  0  0  0  0  0  0
    3.0000    0.0000    0.0000 O   0  0  0  0  0  0  0  0  0  0  0  0
    1.5000    0.0000    0.0000 C   0  0  0  0  0  0  0  0  0  0  0  0
    0.7500   -1.2990    0.0000 C   0  0  0  0  0  0  0  0  0  0  0  0
   -0.7500   -1.2990    0.0000 C   0  0  0  0  0  0  0  0  0  0  0  0
   -1.5000    0.0000    0.0000 C   0  0  0  0  0  0  0  0  0  0  0  0
   -0.7500    1.2990    0.0000 C   0  0  0  0  0  0  0  0  0  0  0  0
    0.7500    1.2990    0.0000 C   0  0  0  0  0  0  0  0  0  0  0  0
  1  2  1  0
  2  3  1  0
  3  4  2  0
  4  5  1  0
  5  6  2  0
  6  7  1  0
  7  8  2  0
  8  3  1  0
M  END
>  <Title>  (1076) 
idABNLgen14

$$$$

     RDKit          2D

  6  5  0  0  0  0  0  0  0  0999 V2000
    0.0000    0.0000    0.0000 C   0  0  0  0  0  0  0  0  0  0  0  0
    1.2990    0.7500    0.0000 C   0  0  0  0  0  0  0  0  0  0  0  0
    2.5981   -0.0000    0.0000 C   0  0  0  0  0  0  0  0  0  0  0  0
    3.8971    0.7500    0.0000 C   0  0  0  0  0  0  0  0  0  0  0  0
    5.1962   -0.0000    0.0000 C   0  0  0  0  0  0  0  0  0  0  0  0
    6.4952   -0.7500    0.0000 N   0  0  0  0  0  0  0  0  0  0  0  0
  1  2  1  0
  2  3  2  3
  3  4  1  0
  4  5  1  0
  5  6  3  0
M  END
>  <Title>  (1077) 
idABNMgen14

$$$$

     RDKit          2D

  9  9  0  0  0  0  0  0  0  0999 V2000
    3.2286   -0.0000    0.0000 C   0  0  0  0  0  0  0  0  0  0  0  0
    1.7286    0.0000    0.0000 N   0  0  0  0  0  0  0  0  0  0  0  0
    1.0777    1.3515    0.0000 C   0  0  0  0  0  0  0  0  0  0  0  0
   -0.3846    1.6852    0.0000 C   0  0  0  0  0  0  0  0  0  0  0  0
   -1.5574    0.7500    0.0000 C   0  0  0  0  0  0  0  0  0  0  0  0
   -1.5574   -0.7500    0.0000 C   0  0  0  0  0  0  0  0  0  0  0  0
   -0.3846   -1.6852    0.0000 C   0  0  0  0  0  0  0  0  0  0  0  0
   -0.7184   -3.1476    0.0000 F   0  0  0  0  0  0  0  0  0  0  0  0
    1.0777   -1.3515    0.0000 N   0  0  0  0  0  0  0  0  0  0  0  0
  1  2  1  0
  2  3  1  0
  3  4  2  0
  4  5  1  0
  5  6  1  0
  6  7  1  0
  7  8  1  0
  7  9  1  0
  9  2  1  0
M  END
>  <Title>  (1078) 
idABNNgen14

$$$$

     RDKit          2D

 16 17  0  0  0  0  0  0  0  0999 V2000
   -1.7455   -5.5373    0.0000 C   0  0  0  0  0  0  0  0  0  0  0  0
   -0.7418   -6.6520    0.0000 C   0  0  0  0  0  0  0  0  0  0  0  0
   -1.0537   -8.1192    0.0000 C   0  0  0  0  0  0  0  0  0  0  0  0
    0.2454   -8.8692    0.0000 C   0  0  0  0  0  0  0  0  0  0  0  0
    1.3601   -7.8655    0.0000 C   0  0  0  0  0  0  0  0  0  0  0  0
    0.7500   -6.4952    0.0000 C   0  0  0  0  0  0  0  0  0  0  0  0
    1.5000   -5.1962    0.0000 C   0  0  0  0  0  0  0  0  0  0  0  0
    3.0000   -5.1962    0.0000 O   0  0  0  0  0  0  0  0  0  0  0  0
    0.7500   -3.8971    0.0000 N   0  0  0  0  0  0  0  0  0  0  0  0
    1.5000   -2.5981    0.0000 C   0  0  0  0  0  0  0  0  0  0  0  0
    0.7500   -1.2990    0.0000 C   0  0  0  0  0  0  0  0  0  0  0  0
    1.5000    0.0000    0.0000 C   0  0  0  0  0  0  0  0  0  0  0  0
    0.7500    1.2990    0.0000 C   0  0  0  0  0  0  0  0  0  0  0  0
   -0.7500    1.2990    0.0000 C   0  0  0  0  0  0  0  0  0  0  0  0
   -1.5000    0.0000    0.0000 N   0  0  0  0  0  0  0  0  0  0  0  0
   -0.7500   -1.2990    0.0000 C   0  0  0  0  0  0  0  0  0  0  0  0
  1  2  1  0
  2  3  2  0
  3  4  1  0
  4  5  1  0
  5  6  2  0
  6  7  1  0
  7  8  2  0
  7  9  1  0
  9 10  1  0
 10 11  1  0
 11 12  2  0
 12 13  1  0
 13 14  2  0
 14 15  1  0
 15 16  2  0
  6  2  1  0
 16 11  1  0
M  END
>  <Title>  (1079) 
idABNOgen14

$$$$

     RDKit          2D

 16 17  0  0  0  0  0  0  0  0999 V2000
    3.7500   -1.2990    0.0000 C   0  0  0  0  0  0  0  0  0  0  0  0
    3.0000    0.0000    0.0000 C   0  0  0  0  0  0  0  0  0  0  0  0
    1.5000    0.0000    0.0000 C   0  0  0  0  0  0  0  0  0  0  0  0
    0.7500   -1.2990    0.0000 C   0  0  0  0  0  0  0  0  0  0  0  0
   -0.7500   -1.2990    0.0000 C   0  0  0  0  0  0  0  0  0  0  0  0
   -1.5000    0.0000    0.0000 C   0  0  0  0  0  0  0  0  0  0  0  0
   -3.0000    0.0000    0.0000 N   0  0  0  0  0  0  0  0  0  0  0  0
   -3.7500    1.2990    0.0000 C   0  0  0  0  0  0  0  0  0  0  0  0
   -5.2500    1.2990    0.0000 C   0  0  0  0  0  0  0  0  0  0  0  0
   -6.0000    0.0000    0.0000 N   0  0  0  0  0  0  0  0  0  0  0  0
   -5.2500   -1.2990    0.0000 N   0  0  0  0  0  0  0  0  0  0  0  0
   -3.7500   -1.2990    0.0000 N   0  0  0  0  0  0  0  0  0  0  0  0
   -0.7500    1.2990    0.0000 C   0  0  0  0  0  0  0  0  0  0  0  0
   -1.5000    2.5981    0.0000 O   0  0  0  0  0  0  0  0  0  0  0  0
    0.7500    1.2990    0.0000 C   0  0  0  0  0  0  0  0  0  0  0  0
    1.5000    2.5981    0.0000 O   0  0  0  0  0  0  0  0  0  0  0  0
  1  2  1  0
  2  3  1  0
  3  4  2  0
  4  5  1  0
  5  6  1  0
  6  7  1  0
  7  8  1  0
  8  9  1  0
  9 10  2  0
 10 11  1  0
 11 12  2  0
  6 13  1  0
 13 14  1  0
 13 15  1  0
 15 16  2  0
 15  3  1  0
 12  7  1  0
M  END
>  <Title>  (1080) 
idABNPgen14

$$$$

     RDKit          2D

  5  5  0  0  0  0  0  0  0  0999 V2000
    1.2760    0.0000    0.0000 C   0  0  0  0  0  0  0  0  0  0  0  0
    0.3943    1.2135    0.0000 C   0  0  0  0  0  0  0  0  0  0  0  0
   -1.0323    0.7500    0.0000 S   0  0  0  0  0  0  0  0  0  0  0  0
   -1.0323   -0.7500    0.0000 C   0  0  0  0  0  0  0  0  0  0  0  0
    0.3943   -1.2135    0.0000 C   0  0  0  0  0  0  0  0  0  0  0  0
  1  2  2  0
  2  3  1  0
  3  4  1  0
  4  5  2  0
  5  1  1  0
M  END
>  <Title>  (1081) 
idABNQgen14

$$$$

     RDKit          2D

 36 40  0  0  0  0  0  0  0  0999 V2000
   -3.1476   -2.1380    0.0000 C   0  0  0  0  0  0  0  0  0  0  0  0
   -1.6852   -2.4718    0.0000 C   0  0  0  0  0  0  0  0  0  0  0  0
   -1.3515   -3.9342    0.0000 C   0  0  0  0  0  0  0  0  0  0  0  0
   -0.0000   -4.5850    0.0000 C   0  0  0  0  0  0  0  0  0  0  0  0
    1.3515   -3.9342    0.0000 C   0  0  0  0  0  0  0  0  0  0  0  0
    1.6852   -2.4718    0.0000 C   0  0  0  0  0  0  0  0  0  0  0  0
    3.1476   -2.1380    0.0000 C   0  0  0  0  0  0  0  0  0  0  0  0
    3.5898   -0.7046    0.0000 O   0  0  0  0  0  0  0  0  0  0  0  0
    4.1679   -3.2376    0.0000 N   0  0  0  0  0  0  0  0  0  0  0  0
    5.6303   -2.9038    0.0000 C   0  0  0  0  0  0  0  0  0  0  0  0
    6.2198   -1.5245    0.0000 N   0  0  0  0  0  0  0  0  0  0  0  0
    7.7138   -1.6590    0.0000 N   0  0  0  0  0  0  0  0  0  0  0  0
    8.0476   -3.1214    0.0000 N   0  0  0  0  0  0  0  0  0  0  0  0
    6.7599   -3.8907    0.0000 N   0  0  0  0  0  0  0  0  0  0  0  0
    6.6254   -5.3847    0.0000 N   0  0  0  0  0  0  0  0  0  0  0  0
    7.7550   -6.3716    0.0000 C   0  0  0  0  0  0  0  0  0  0  0  0
    7.1655   -7.7509    0.0000 C   0  0  0  0  0  0  0  0  0  0  0  0
    5.6715   -7.6164    0.0000 N   0  0  0  0  0  0  0  0  0  0  0  0
    4.6846   -8.7460    0.0000 C   0  0  0  0  0  0  0  0  0  0  0  0
    5.1694  -10.1655    0.0000 O   0  0  0  0  0  0  0  0  0  0  0  0
    3.2129   -8.4561    0.0000 N   0  0  0  0  0  0  0  0  0  0  0  0
    2.2260   -9.5857    0.0000 C   0  0  0  0  0  0  0  0  0  0  0  0
    0.7543   -9.2959    0.0000 N   0  0  0  0  0  0  0  0  0  0  0  0
   -0.2326  -10.4255    0.0000 N   0  0  0  0  0  0  0  0  0  0  0  0
    0.2522  -11.8450    0.0000 N   0  0  0  0  0  0  0  0  0  0  0  0
    1.7239  -12.1348    0.0000 N   0  0  0  0  0  0  0  0  0  0  0  0
    2.7108  -11.0052    0.0000 N   0  0  0  0  0  0  0  0  0  0  0  0
    5.3378   -6.1540    0.0000 C   0  0  0  0  0  0  0  0  0  0  0  0
    3.9585   -5.5645    0.0000 O   0  0  0  0  0  0  0  0  0  0  0  0
    0.7500   -1.2990    0.0000 C   0  0  0  0  0  0  0  0  0  0  0  0
    1.5000    0.0000    0.0000 C   0  0  0  0  0  0  0  0  0  0  0  0
    0.7500    1.2990    0.0000 C   0  0  0  0  0  0  0  0  0  0  0  0
   -0.7500    1.2990    0.0000 C   0  0  0  0  0  0  0  0  0  0  0  0
   -1.5000    2.5981    0.0000 O   0  0  0  0  0  0  0  0  0  0  0  0
   -1.5000    0.0000    0.0000 C   0  0  0  0  0  0  0  0  0  0  0  0
   -0.7500   -1.2990    0.0000 C   0  0  0  0  0  0  0  0  0  0  0  0
  1  2  1  0
  2  3  1  0
  3  4  1  0
  4  5  1  0
  5  6  1  0
  6  7  1  0
  7  8  2  0
  7  9  1  0
  9 10  1  0
 10 11  2  0
 11 12  1  0
 12 13  2  0
 13 14  1  0
 14 15  1  0
 15 16  1  0
 16 17  1  0
 17 18  1  0
 18 19  1  0
 19 20  2  0
 19 21  1  0
 21 22  1  0
 22 23  2  0
 23 24  1  0
 24 25  2  0
 25 26  1  0
 26 27  2  0
 18 28  1  0
 28 29  2  0
  6 30  1  0
 30 31  2  0
 31 32  1  0
 32 33  2  0
 33 34  1  0
 33 35  1  0
 35 36  2  0
 36  2  1  0
 14 10  1  0
 28 15  1  0
 36 30  1  0
 27 22  1  0
M  END
>  <Title>  (1082) 
idABNRgen14

$$$$

     RDKit          2D

  7  6  0  0  0  0  0  0  0  0999 V2000
    0.0000    0.0000    0.0000 C   0  0  0  0  0  0  0  0  0  0  0  0
    1.2990    0.7500    0.0000 C   0  0  0  0  0  0  0  0  0  0  0  0
    2.5981   -0.0000    0.0000 C   0  0  0  0  0  0  0  0  0  0  0  0
    1.2990    2.2500    0.0000 C   0  0  0  0  0  0  0  0  0  0  0  0
    2.5981    3.0000    0.0000 C   0  0  0  0  0  0  0  0  0  0  0  0
    2.5981    4.5000    0.0000 C   0  0  0  0  0  0  0  0  0  0  0  0
    3.8971    2.2500    0.0000 O   0  0  0  0  0  0  0  0  0  0  0  0
  1  2  1  0
  2  3  1  0
  2  4  1  0
  4  5  1  0
  5  6  1  0
  5  7  1  0
M  END
>  <Title>  (1083) 
idABNSgen14

$$$$

     RDKit          2D

 32 36  0  0  0  0  0  0  0  0999 V2000
   -2.6401   -3.1891    0.0000 C   0  0  0  0  0  0  0  0  0  0  0  0
   -1.2135   -2.7256    0.0000 C   0  0  0  0  0  0  0  0  0  0  0  0
   -0.0000   -3.6073    0.0000 C   0  0  0  0  0  0  0  0  0  0  0  0
    1.2135   -2.7256    0.0000 C   0  0  0  0  0  0  0  0  0  0  0  0
    2.6401   -3.1891    0.0000 C   0  0  0  0  0  0  0  0  0  0  0  0
    3.7548   -2.1855    0.0000 O   0  0  0  0  0  0  0  0  0  0  0  0
    2.9520   -4.6564    0.0000 N   0  0  0  0  0  0  0  0  0  0  0  0
    4.3786   -5.1199    0.0000 C   0  0  0  0  0  0  0  0  0  0  0  0
    5.5921   -4.2382    0.0000 N   0  0  0  0  0  0  0  0  0  0  0  0
    6.8056   -5.1199    0.0000 N   0  0  0  0  0  0  0  0  0  0  0  0
    6.3421   -6.5465    0.0000 N   0  0  0  0  0  0  0  0  0  0  0  0
    4.8421   -6.5465    0.0000 N   0  0  0  0  0  0  0  0  0  0  0  0
    3.9604   -7.7600    0.0000 N   0  0  0  0  0  0  0  0  0  0  0  0
    2.4789   -7.9947    0.0000 C   0  0  0  0  0  0  0  0  0  0  0  0
    2.7135   -9.4762    0.0000 C   0  0  0  0  0  0  0  0  0  0  0  0
    1.8319  -10.6897    0.0000 C   0  0  0  0  0  0  0  0  0  0  0  0
    2.4420  -12.0600    0.0000 O   0  0  0  0  0  0  0  0  0  0  0  0
    0.3401  -10.5329    0.0000 N   0  0  0  0  0  0  0  0  0  0  0  0
   -0.5416  -11.7464    0.0000 C   0  0  0  0  0  0  0  0  0  0  0  0
   -2.0334  -11.5897    0.0000 N   0  0  0  0  0  0  0  0  0  0  0  0
   -2.9151  -12.8032    0.0000 N   0  0  0  0  0  0  0  0  0  0  0  0
   -2.3050  -14.1735    0.0000 N   0  0  0  0  0  0  0  0  0  0  0  0
   -0.8132  -14.3303    0.0000 N   0  0  0  0  0  0  0  0  0  0  0  0
    0.0685  -13.1168    0.0000 N   0  0  0  0  0  0  0  0  0  0  0  0
    4.1951   -9.2415    0.0000 C   0  0  0  0  0  0  0  0  0  0  0  0
    5.4086  -10.1232    0.0000 O   0  0  0  0  0  0  0  0  0  0  0  0
    0.7500   -1.2990    0.0000 C   0  0  0  0  0  0  0  0  0  0  0  0
    1.5000    0.0000    0.0000 C   0  0  0  0  0  0  0  0  0  0  0  0
    0.7500    1.2990    0.0000 C   0  0  0  0  0  0  0  0  0  0  0  0
   -0.7500    1.2990    0.0000 C   0  0  0  0  0  0  0  0  0  0  0  0
   -1.5000    0.0000    0.0000 C   0  0  0  0  0  0  0  0  0  0  0  0
   -0.7500   -1.2990    0.0000 C   0  0  0  0  0  0  0  0  0  0  0  0
  1  2  1  0
  2  3  2  0
  3  4  1  0
  4  5  1  0
  5  6  2  0
  5  7  1  0
  7  8  1  0
  8  9  2  0
  9 10  1  0
 10 11  2  0
 11 12  1  0
 12 13  1  0
 13 14  1  0
 14 15  2  0
 15 16  1  0
 16 17  2  0
 16 18  1  0
 18 19  1  0
 19 20  2  0
 20 21  1  0
 21 22  2  0
 22 23  1  0
 23 24  2  0
 15 25  1  0
 25 26  2  0
  4 27  1  0
 27 28  2  0
 28 29  1  0
 29 30  2  0
 30 31  1  0
 31 32  2  0
 32  2  1  0
 12  8  1  0
 25 13  1  0
 32 27  1  0
 24 19  1  0
M  END
>  <Title>  (1084) 
idABNTgen14

$$$$

     RDKit          2D

 34 38  0  0  0  0  0  0  0  0999 V2000
   -4.0667   -3.6527    0.0000 N   0  0  0  0  0  0  0  0  0  0  0  0
   -2.6401   -3.1891    0.0000 C   0  0  0  0  0  0  0  0  0  0  0  0
   -1.2135   -2.7256    0.0000 C   0  0  0  0  0  0  0  0  0  0  0  0
   -0.0000   -3.6073    0.0000 C   0  0  0  0  0  0  0  0  0  0  0  0
    1.2135   -2.7256    0.0000 C   0  0  0  0  0  0  0  0  0  0  0  0
    2.6401   -3.1891    0.0000 C   0  0  0  0  0  0  0  0  0  0  0  0
    3.7548   -2.1855    0.0000 O   0  0  0  0  0  0  0  0  0  0  0  0
    2.9520   -4.6564    0.0000 N   0  0  0  0  0  0  0  0  0  0  0  0
    4.3786   -5.1199    0.0000 C   0  0  0  0  0  0  0  0  0  0  0  0
    5.5921   -4.2382    0.0000 N   0  0  0  0  0  0  0  0  0  0  0  0
    6.8056   -5.1199    0.0000 N   0  0  0  0  0  0  0  0  0  0  0  0
    6.3421   -6.5465    0.0000 N   0  0  0  0  0  0  0  0  0  0  0  0
    4.8421   -6.5465    0.0000 N   0  0  0  0  0  0  0  0  0  0  0  0
    3.9604   -7.7600    0.0000 N   0  0  0  0  0  0  0  0  0  0  0  0
    4.4239   -9.1866    0.0000 C   0  0  0  0  0  0  0  0  0  0  0  0
    3.2104  -10.0683    0.0000 C   0  0  0  0  0  0  0  0  0  0  0  0
    1.9969   -9.1866    0.0000 N   0  0  0  0  0  0  0  0  0  0  0  0
    0.5703   -9.6501    0.0000 C   0  0  0  0  0  0  0  0  0  0  0  0
    0.2584  -11.1173    0.0000 O   0  0  0  0  0  0  0  0  0  0  0  0
   -0.5444   -8.6464    0.0000 N   0  0  0  0  0  0  0  0  0  0  0  0
   -1.9710   -9.1099    0.0000 C   0  0  0  0  0  0  0  0  0  0  0  0
   -3.0857   -8.1062    0.0000 N   0  0  0  0  0  0  0  0  0  0  0  0
   -4.5123   -8.5698    0.0000 N   0  0  0  0  0  0  0  0  0  0  0  0
   -4.8242  -10.0370    0.0000 N   0  0  0  0  0  0  0  0  0  0  0  0
   -3.7095  -11.0407    0.0000 N   0  0  0  0  0  0  0  0  0  0  0  0
   -2.2829  -10.5772    0.0000 N   0  0  0  0  0  0  0  0  0  0  0  0
    2.4604   -7.7600    0.0000 C   0  0  0  0  0  0  0  0  0  0  0  0
    1.5787   -6.5465    0.0000 O   0  0  0  0  0  0  0  0  0  0  0  0
    0.7500   -1.2990    0.0000 C   0  0  0  0  0  0  0  0  0  0  0  0
    1.5000    0.0000    0.0000 C   0  0  0  0  0  0  0  0  0  0  0  0
    0.7500    1.2990    0.0000 C   0  0  0  0  0  0  0  0  0  0  0  0
   -0.7500    1.2990    0.0000 C   0  0  0  0  0  0  0  0  0  0  0  0
   -1.5000    0.0000    0.0000 C   0  0  0  0  0  0  0  0  0  0  0  0
   -0.7500   -1.2990    0.0000 C   0  0  0  0  0  0  0  0  0  0  0  0
  1  2  3  0
  2  3  1  0
  3  4  1  0
  4  5  2  0
  5  6  1  0
  6  7  2  0
  6  8  1  0
  8  9  1  0
  9 10  2  0
 10 11  1  0
 11 12  2  0
 12 13  1  0
 13 14  1  0
 14 15  1  0
 15 16  1  0
 16 17  1  0
 17 18  1  0
 18 19  2  0
 18 20  1  0
 20 21  1  0
 21 22  2  0
 22 23  1  0
 23 24  2  0
 24 25  1  0
 25 26  2  0
 17 27  1  0
 27 28  2  0
  5 29  1  0
 29 30  2  0
 30 31  1  0
 31 32  2  0
 32 33  1  0
 33 34  2  0
 34  3  1  0
 13  9  1  0
 27 14  1  0
 34 29  1  0
 26 21  1  0
M  END
>  <Title>  (1085) 
idABNUgen14

$$$$

     RDKit          2D

 29 32  0  0  0  0  0  0  0  0999 V2000
   -3.1965   -1.7857    0.0000 C   0  0  0  0  0  0  0  0  0  0  0  0
   -1.8107   -2.3597    0.0000 C   0  0  0  0  0  0  0  0  0  0  0  0
   -1.8107   -3.8597    0.0000 C   0  0  0  0  0  0  0  0  0  0  0  0
   -0.7500   -4.9204    0.0000 C   0  0  0  0  0  0  0  0  0  0  0  0
    0.7500   -4.9204    0.0000 C   0  0  0  0  0  0  0  0  0  0  0  0
    1.8107   -3.8597    0.0000 C   0  0  0  0  0  0  0  0  0  0  0  0
    1.8107   -2.3597    0.0000 C   0  0  0  0  0  0  0  0  0  0  0  0
    3.1965   -1.7857    0.0000 C   0  0  0  0  0  0  0  0  0  0  0  0
    3.3923   -0.2985    0.0000 O   0  0  0  0  0  0  0  0  0  0  0  0
    4.3865   -2.6988    0.0000 N   0  0  0  0  0  0  0  0  0  0  0  0
    5.7723   -2.1248    0.0000 C   0  0  0  0  0  0  0  0  0  0  0  0
    6.1225   -0.6662    0.0000 N   0  0  0  0  0  0  0  0  0  0  0  0
    7.6179   -0.5485    0.0000 N   0  0  0  0  0  0  0  0  0  0  0  0
    8.1919   -1.9344    0.0000 N   0  0  0  0  0  0  0  0  0  0  0  0
    7.0513   -2.9085    0.0000 N   0  0  0  0  0  0  0  0  0  0  0  0
    7.1690   -4.4039    0.0000 C   0  0  0  0  0  0  0  0  0  0  0  0
    5.9328   -5.2535    0.0000 C   0  0  0  0  0  0  0  0  0  0  0  0
    6.0505   -6.7489    0.0000 C   0  0  0  0  0  0  0  0  0  0  0  0
    7.4044   -7.3947    0.0000 C   0  0  0  0  0  0  0  0  0  0  0  0
    7.5220   -8.8900    0.0000 O   0  0  0  0  0  0  0  0  0  0  0  0
    8.6405   -6.5451    0.0000 C   0  0  0  0  0  0  0  0  0  0  0  0
    8.5229   -5.0497    0.0000 C   0  0  0  0  0  0  0  0  0  0  0  0
    0.7500   -1.2990    0.0000 C   0  0  0  0  0  0  0  0  0  0  0  0
    1.5000    0.0000    0.0000 C   0  0  0  0  0  0  0  0  0  0  0  0
    0.7500    1.2990    0.0000 C   0  0  0  0  0  0  0  0  0  0  0  0
   -0.7500    1.2990    0.0000 C   0  0  0  0  0  0  0  0  0  0  0  0
   -1.5000    2.5981    0.0000 O   0  0  0  0  0  0  0  0  0  0  0  0
   -1.5000    0.0000    0.0000 C   0  0  0  0  0  0  0  0  0  0  0  0
   -0.7500   -1.2990    0.0000 C   0  0  0  0  0  0  0  0  0  0  0  0
  1  2  1  0
  2  3  1  0
  3  4  1  0
  4  5  1  0
  5  6  1  0
  6  7  1  0
  7  8  1  0
  8  9  2  0
  8 10  1  0
 10 11  1  0
 11 12  2  0
 12 13  1  0
 13 14  2  0
 14 15  1  0
 15 16  1  0
 16 17  2  0
 17 18  1  0
 18 19  2  0
 19 20  1  0
 19 21  1  0
 21 22  2  0
  7 23  1  0
 23 24  2  0
 24 25  1  0
 25 26  2  0
 26 27  1  0
 26 28  1  0
 28 29  2  0
 29  2  1  0
 15 11  1  0
 22 16  1  0
 29 23  1  0
M  END
>  <Title>  (1086) 
idABNVgen14

$$$$

     RDKit          2D

  7  6  0  0  0  0  0  0  0  0999 V2000
    0.0000    0.0000    0.0000 C   0  0  0  0  0  0  0  0  0  0  0  0
    1.2990    0.7500    0.0000 C   0  0  0  0  0  0  0  0  0  0  0  0
    2.5981   -0.0000    0.0000 C   0  0  0  0  0  0  0  0  0  0  0  0
    3.8971    0.7500    0.0000 C   0  0  0  0  0  0  0  0  0  0  0  0
    5.1962   -0.0000    0.0000 C   0  0  0  0  0  0  0  0  0  0  0  0
    6.4952    0.7500    0.0000 C   0  0  0  0  0  0  0  0  0  0  0  0
    7.7942   -0.0000    0.0000 C   0  0  0  0  0  0  0  0  0  0  0  0
  1  2  1  0
  2  3  2  3
  3  4  1  0
  4  5  1  0
  5  6  2  3
  6  7  1  0
M  END
>  <Title>  (1087) 
idABNWgen14

$$$$

     RDKit          2D

 43 48  0  0  0  0  0  0  0  0999 V2000
   -3.7860   -5.5823    0.0000 C   0  0  0  0  0  0  0  0  0  0  0  0
   -2.4215   -4.9592    0.0000 C   0  0  0  0  0  0  0  0  0  0  0  0
   -1.4392   -6.0928    0.0000 C   0  0  0  0  0  0  0  0  0  0  0  0
   -0.0000   -6.5154    0.0000 C   0  0  0  0  0  0  0  0  0  0  0  0
    1.4392   -6.0928    0.0000 C   0  0  0  0  0  0  0  0  0  0  0  0
    2.4215   -4.9592    0.0000 C   0  0  0  0  0  0  0  0  0  0  0  0
    2.6350   -3.4744    0.0000 C   0  0  0  0  0  0  0  0  0  0  0  0
    2.0119   -2.1100    0.0000 C   0  0  0  0  0  0  0  0  0  0  0  0
    3.1455   -1.1277    0.0000 C   0  0  0  0  0  0  0  0  0  0  0  0
    2.8616    0.3452    0.0000 O   0  0  0  0  0  0  0  0  0  0  0  0
    4.5630   -1.6183    0.0000 N   0  0  0  0  0  0  0  0  0  0  0  0
    5.6966   -0.6360    0.0000 C   0  0  0  0  0  0  0  0  0  0  0  0
    5.5683    0.8585    0.0000 N   0  0  0  0  0  0  0  0  0  0  0  0
    6.9500    1.4424    0.0000 N   0  0  0  0  0  0  0  0  0  0  0  0
    7.9322    0.3088    0.0000 N   0  0  0  0  0  0  0  0  0  0  0  0
    7.1576   -0.9758    0.0000 N   0  0  0  0  0  0  0  0  0  0  0  0
    7.7416   -2.3574    0.0000 N   0  0  0  0  0  0  0  0  0  0  0  0
    9.2026   -2.6972    0.0000 C   0  0  0  0  0  0  0  0  0  0  0  0
    9.3309   -4.1917    0.0000 C   0  0  0  0  0  0  0  0  0  0  0  0
    7.9492   -4.7756    0.0000 C   0  0  0  0  0  0  0  0  0  0  0  0
    7.6095   -6.2366    0.0000 C   0  0  0  0  0  0  0  0  0  0  0  0
    8.7049   -7.2614    0.0000 O   0  0  0  0  0  0  0  0  0  0  0  0
    6.1744   -6.6729    0.0000 N   0  0  0  0  0  0  0  0  0  0  0  0
    5.8346   -8.1339    0.0000 C   0  0  0  0  0  0  0  0  0  0  0  0
    4.3995   -8.5702    0.0000 N   0  0  0  0  0  0  0  0  0  0  0  0
    4.0597  -10.0312    0.0000 N   0  0  0  0  0  0  0  0  0  0  0  0
    5.1551  -11.0560    0.0000 N   0  0  0  0  0  0  0  0  0  0  0  0
    6.5903  -10.6197    0.0000 N   0  0  0  0  0  0  0  0  0  0  0  0
    6.9300   -9.1587    0.0000 N   0  0  0  0  0  0  0  0  0  0  0  0
    6.9670   -3.6420    0.0000 C   0  0  0  0  0  0  0  0  0  0  0  0
    5.4725   -3.7703    0.0000 O   0  0  0  0  0  0  0  0  0  0  0  0
    0.7500   -1.2990    0.0000 C   0  0  0  0  0  0  0  0  0  0  0  0
    1.5000    0.0000    0.0000 C   0  0  0  0  0  0  0  0  0  0  0  0
    0.7500    1.2990    0.0000 C   0  0  0  0  0  0  0  0  0  0  0  0
   -0.7500    1.2990    0.0000 C   0  0  0  0  0  0  0  0  0  0  0  0
   -1.5000    0.0000    0.0000 C   0  0  0  0  0  0  0  0  0  0  0  0
   -0.7500   -1.2990    0.0000 C   0  0  0  0  0  0  0  0  0  0  0  0
   -2.0119   -2.1100    0.0000 C   0  0  0  0  0  0  0  0  0  0  0  0
   -2.8820   -0.8881    0.0000 C   0  0  0  0  0  0  0  0  0  0  0  0
   -4.3752   -1.0307    0.0000 C   0  0  0  0  0  0  0  0  0  0  0  0
   -4.9983   -2.3952    0.0000 C   0  0  0  0  0  0  0  0  0  0  0  0
   -4.1282   -3.6170    0.0000 C   0  0  0  0  0  0  0  0  0  0  0  0
   -2.6350   -3.4744    0.0000 C   0  0  0  0  0  0  0  0  0  0  0  0
  1  2  1  0
  2  3  1  0
  3  4  1  0
  4  5  1  0
  5  6  2  0
  6  7  1  0
  7  8  1  0
  8  9  1  0
  9 10  2  0
  9 11  1  0
 11 12  1  0
 12 13  2  0
 13 14  1  0
 14 15  2  0
 15 16  1  0
 16 17  1  0
 17 18  1  0
 18 19  1  0
 19 20  1  0
 20 21  1  0
 21 22  2  0
 21 23  1  0
 23 24  1  0
 24 25  2  0
 25 26  1  0
 26 27  2  0
 27 28  1  0
 28 29  2  0
 20 30  1  0
 30 31  2  0
  8 32  1  0
 32 33  2  0
 33 34  1  0
 34 35  2  0
 35 36  1  0
 36 37  2  0
 37 38  1  0
 38 39  2  0
 39 40  1  0
 40 41  2  0
 41 42  1  0
 42 43  2  0
 43  2  1  0
 16 12  1  0
 30 17  1  0
 37 32  1  0
 43 38  1  0
 29 24  1  0
M  END
>  <Title>  (1088) 
idABNXgen14

$$$$

     RDKit          2D

 15 15  0  0  0  0  0  0  0  0999 V2000
    9.7500   -1.2990    0.0000 C   0  0  0  0  0  0  0  0  0  0  0  0
    8.2500   -1.2990    0.0000 C   0  0  0  0  0  0  0  0  0  0  0  0
    7.5000   -2.5981    0.0000 C   0  0  0  0  0  0  0  0  0  0  0  0
    8.2500   -3.8971    0.0000 C   0  0  0  0  0  0  0  0  0  0  0  0
    6.0000   -2.5981    0.0000 N   0  0  0  0  0  0  0  0  0  0  0  0
    5.2500   -1.2990    0.0000 C   0  0  0  0  0  0  0  0  0  0  0  0
    6.0000    0.0000    0.0000 O   0  0  0  0  0  0  0  0  0  0  0  0
    3.7500   -1.2990    0.0000 N   0  0  0  0  0  0  0  0  0  0  0  0
    3.0000    0.0000    0.0000 C   0  0  0  0  0  0  0  0  0  0  0  0
    1.5000    0.0000    0.0000 C   0  0  0  0  0  0  0  0  0  0  0  0
    0.7500   -1.2990    0.0000 C   0  0  0  0  0  0  0  0  0  0  0  0
   -0.7500   -1.2990    0.0000 C   0  0  0  0  0  0  0  0  0  0  0  0
   -1.5000    0.0000    0.0000 C   0  0  0  0  0  0  0  0  0  0  0  0
   -0.7500    1.2990    0.0000 N   0  0  0  0  0  0  0  0  0  0  0  0
    0.7500    1.2990    0.0000 C   0  0  0  0  0  0  0  0  0  0  0  0
  1  2  1  0
  2  3  1  0
  3  4  1  0
  3  5  1  0
  5  6  1  0
  6  7  2  0
  6  8  1  0
  8  9  1  0
  9 10  1  0
 10 11  2  0
 11 12  1  0
 12 13  2  0
 13 14  1  0
 14 15  2  0
 15 10  1  0
M  END
>  <Title>  (1089) 
idABNYgen14

$$$$

     RDKit          2D

 10 11  0  0  0  0  0  0  0  0999 V2000
   -2.6401   -3.1891    0.0000 C   0  0  0  0  0  0  0  0  0  0  0  0
   -1.2135   -2.7256    0.0000 C   0  0  0  0  0  0  0  0  0  0  0  0
   -0.0000   -3.6073    0.0000 C   0  0  0  0  0  0  0  0  0  0  0  0
    1.2135   -2.7256    0.0000 C   0  0  0  0  0  0  0  0  0  0  0  0
    0.7500   -1.2990    0.0000 C   0  0  0  0  0  0  0  0  0  0  0  0
    1.5000    0.0000    0.0000 C   0  0  0  0  0  0  0  0  0  0  0  0
    0.7500    1.2990    0.0000 C   0  0  0  0  0  0  0  0  0  0  0  0
   -0.7500    1.2990    0.0000 C   0  0  0  0  0  0  0  0  0  0  0  0
   -1.5000    0.0000    0.0000 N   0  0  0  0  0  0  0  0  0  0  0  0
   -0.7500   -1.2990    0.0000 C   0  0  0  0  0  0  0  0  0  0  0  0
  1  2  1  0
  2  3  2  0
  3  4  1  0
  4  5  1  0
  5  6  2  0
  6  7  1  0
  7  8  2  0
  8  9  1  0
  9 10  2  0
 10  2  1  0
 10  5  1  0
M  END
>  <Title>  (1090) 
idABNZgen14

$$$$

     RDKit          2D

  6  6  0  0  0  0  0  0  0  0999 V2000
    2.7760    0.0000    0.0000 O   0  0  0  0  0  0  0  0  0  0  0  0
    1.2760    0.0000    0.0000 C   0  0  0  0  0  0  0  0  0  0  0  0
    0.3943    1.2135    0.0000 C   0  0  0  0  0  0  0  0  0  0  0  0
   -1.0323    0.7500    0.0000 C   0  0  0  0  0  0  0  0  0  0  0  0
   -1.0323   -0.7500    0.0000 C   0  0  0  0  0  0  0  0  0  0  0  0
    0.3943   -1.2135    0.0000 C   0  0  0  0  0  0  0  0  0  0  0  0
  1  2  1  0
  2  3  2  0
  3  4  1  0
  4  5  1  0
  5  6  2  0
  6  2  1  0
M  END
>  <Title>  (1091) 
idABOAgen14

$$$$

     RDKit          2D

  5  4  0  0  0  0  0  0  0  0999 V2000
    0.0000    0.0000    0.0000 C   0  0  0  0  0  0  0  0  0  0  0  0
    1.2990    0.7500    0.0000 N   0  0  0  0  0  0  0  0  0  0  0  0
    2.5981   -0.0000    0.0000 C   0  0  0  0  0  0  0  0  0  0  0  0
    3.8971    0.7500    0.0000 C   0  0  0  0  0  0  0  0  0  0  0  0
    2.5981   -1.5000    0.0000 O   0  0  0  0  0  0  0  0  0  0  0  0
  1  2  1  0
  2  3  1  0
  3  4  1  0
  3  5  2  0
M  END
>  <Title>  (1092) 
idABOBgen14

$$$$

     RDKit          2D

 91 92  0  0  0  0  0  0  0  0999 V2000
   -2.4101    0.0825    0.0000 C   0  0  0  0  0  0  0  0  0  0  0  0
   -2.2460   -1.4085    0.0000 C   0  0  0  0  0  0  0  0  0  0  0  0
   -3.7300   -1.6269    0.0000 C   0  0  0  0  0  0  0  0  0  0  0  0
   -5.1941   -1.9531    0.0000 C   0  0  0  0  0  0  0  0  0  0  0  0
   -6.6305   -2.3852    0.0000 C   0  0  0  0  0  0  0  0  0  0  0  0
   -8.0316   -2.9211    0.0000 C   0  0  0  0  0  0  0  0  0  0  0  0
   -9.3897   -3.5578    0.0000 C   0  0  0  0  0  0  0  0  0  0  0  0
  -10.6978   -4.2919    0.0000 C   0  0  0  0  0  0  0  0  0  0  0  0
  -11.9488   -5.1195    0.0000 C   0  0  0  0  0  0  0  0  0  0  0  0
  -13.1360   -6.0363    0.0000 C   0  0  0  0  0  0  0  0  0  0  0  0
  -14.2532   -7.0373    0.0000 C   0  0  0  0  0  0  0  0  0  0  0  0
  -15.2943   -8.1171    0.0000 C   0  0  0  0  0  0  0  0  0  0  0  0
  -16.2538   -9.2701    0.0000 C   0  0  0  0  0  0  0  0  0  0  0  0
  -17.1266  -10.4900    0.0000 C   0  0  0  0  0  0  0  0  0  0  0  0
  -17.9080  -11.7704    0.0000 C   0  0  0  0  0  0  0  0  0  0  0  0
  -18.5939  -13.1044    0.0000 C   0  0  0  0  0  0  0  0  0  0  0  0
  -19.1805  -14.4850    0.0000 C   0  0  0  0  0  0  0  0  0  0  0  0
  -19.6649  -15.9046    0.0000 C   0  0  0  0  0  0  0  0  0  0  0  0
  -20.0443  -17.3558    0.0000 C   0  0  0  0  0  0  0  0  0  0  0  0
  -20.3167  -18.8309    0.0000 C   0  0  0  0  0  0  0  0  0  0  0  0
  -20.4808  -20.3219    0.0000 C   0  0  0  0  0  0  0  0  0  0  0  0
  -20.5356  -21.8209    0.0000 C   0  0  0  0  0  0  0  0  0  0  0  0
  -20.4808  -23.3199    0.0000 C   0  0  0  0  0  0  0  0  0  0  0  0
  -20.3167  -24.8109    0.0000 C   0  0  0  0  0  0  0  0  0  0  0  0
  -20.0443  -26.2859    0.0000 C   0  0  0  0  0  0  0  0  0  0  0  0
  -19.6649  -27.7372    0.0000 C   0  0  0  0  0  0  0  0  0  0  0  0
  -19.1805  -29.1568    0.0000 C   0  0  0  0  0  0  0  0  0  0  0  0
  -18.5939  -30.5373    0.0000 C   0  0  0  0  0  0  0  0  0  0  0  0
  -17.9080  -31.8714    0.0000 C   0  0  0  0  0  0  0  0  0  0  0  0
  -17.1266  -33.1517    0.0000 C   0  0  0  0  0  0  0  0  0  0  0  0
  -16.2538  -34.3717    0.0000 C   0  0  0  0  0  0  0  0  0  0  0  0
  -15.2943  -35.5247    0.0000 C   0  0  0  0  0  0  0  0  0  0  0  0
  -14.2532  -36.6045    0.0000 C   0  0  0  0  0  0  0  0  0  0  0  0
  -13.1360  -37.6055    0.0000 C   0  0  0  0  0  0  0  0  0  0  0  0
  -11.9488  -38.5222    0.0000 C   0  0  0  0  0  0  0  0  0  0  0  0
  -10.6978  -39.3499    0.0000 C   0  0  0  0  0  0  0  0  0  0  0  0
   -9.3897  -40.0840    0.0000 C   0  0  0  0  0  0  0  0  0  0  0  0
   -8.0316  -40.7207    0.0000 C   0  0  0  0  0  0  0  0  0  0  0  0
   -6.6305  -41.2566    0.0000 C   0  0  0  0  0  0  0  0  0  0  0  0
   -5.1941  -41.6887    0.0000 C   0  0  0  0  0  0  0  0  0  0  0  0
   -3.7300  -42.0149    0.0000 C   0  0  0  0  0  0  0  0  0  0  0  0
   -2.2460  -42.2333    0.0000 C   0  0  0  0  0  0  0  0  0  0  0  0
   -0.7500  -42.3427    0.0000 C   0  0  0  0  0  0  0  0  0  0  0  0
    0.7500  -42.3427    0.0000 C   0  0  0  0  0  0  0  0  0  0  0  0
    2.2460  -42.2333    0.0000 C   0  0  0  0  0  0  0  0  0  0  0  0
    3.7300  -42.0149    0.0000 C   0  0  0  0  0  0  0  0  0  0  0  0
    5.1941  -41.6887    0.0000 C   0  0  0  0  0  0  0  0  0  0  0  0
    6.6305  -41.2566    0.0000 C   0  0  0  0  0  0  0  0  0  0  0  0
    8.0316  -40.7207    0.0000 C   0  0  0  0  0  0  0  0  0  0  0  0
    9.3897  -40.0840    0.0000 C   0  0  0  0  0  0  0  0  0  0  0  0
   10.6978  -39.3499    0.0000 C   0  0  0  0  0  0  0  0  0  0  0  0
   11.9488  -38.5222    0.0000 C   0  0  0  0  0  0  0  0  0  0  0  0
   13.1360  -37.6055    0.0000 C   0  0  0  0  0  0  0  0  0  0  0  0
   14.2532  -36.6045    0.0000 C   0  0  0  0  0  0  0  0  0  0  0  0
   15.2943  -35.5247    0.0000 C   0  0  0  0  0  0  0  0  0  0  0  0
   16.2538  -34.3717    0.0000 C   0  0  0  0  0  0  0  0  0  0  0  0
   17.1266  -33.1517    0.0000 C   0  0  0  0  0  0  0  0  0  0  0  0
   17.9080  -31.8714    0.0000 C   0  0  0  0  0  0  0  0  0  0  0  0
   18.5939  -30.5373    0.0000 C   0  0  0  0  0  0  0  0  0  0  0  0
   19.1805  -29.1568    0.0000 C   0  0  0  0  0  0  0  0  0  0  0  0
   19.6649  -27.7372    0.0000 C   0  0  0  0  0  0  0  0  0  0  0  0
   20.0443  -26.2859    0.0000 C   0  0  0  0  0  0  0  0  0  0  0  0
   20.3167  -24.8109    0.0000 C   0  0  0  0  0  0  0  0  0  0  0  0
   20.4808  -23.3199    0.0000 C   0  0  0  0  0  0  0  0  0  0  0  0
   20.5356  -21.8209    0.0000 C   0  0  0  0  0  0  0  0  0  0  0  0
   20.4808  -20.3219    0.0000 C   0  0  0  0  0  0  0  0  0  0  0  0
   20.3167  -18.8309    0.0000 C   0  0  0  0  0  0  0  0  0  0  0  0
   20.0443  -17.3558    0.0000 C   0  0  0  0  0  0  0  0  0  0  0  0
   19.6649  -15.9046    0.0000 C   0  0  0  0  0  0  0  0  0  0  0  0
   19.1805  -14.4850    0.0000 C   0  0  0  0  0  0  0  0  0  0  0  0
   18.5939  -13.1044    0.0000 C   0  0  0  0  0  0  0  0  0  0  0  0
   17.9080  -11.7704    0.0000 C   0  0  0  0  0  0  0  0  0  0  0  0
   17.1266  -10.4900    0.0000 C   0  0  0  0  0  0  0  0  0  0  0  0
   16.2538   -9.2701    0.0000 C   0  0  0  0  0  0  0  0  0  0  0  0
   15.2943   -8.1171    0.0000 C   0  0  0  0  0  0  0  0  0  0  0  0
   14.2532   -7.0373    0.0000 C   0  0  0  0  0  0  0  0  0  0  0  0
   13.1360   -6.0363    0.0000 C   0  0  0  0  0  0  0  0  0  0  0  0
   11.9488   -5.1195    0.0000 C   0  0  0  0  0  0  0  0  0  0  0  0
   10.6978   -4.2919    0.0000 C   0  0  0  0  0  0  0  0  0  0  0  0
    9.3897   -3.5578    0.0000 C   0  0  0  0  0  0  0  0  0  0  0  0
    8.0316   -2.9211    0.0000 C   0  0  0  0  0  0  0  0  0  0  0  0
    6.6305   -2.3852    0.0000 C   0  0  0  0  0  0  0  0  0  0  0  0
    5.1941   -1.9531    0.0000 C   0  0  0  0  0  0  0  0  0  0  0  0
    3.7300   -1.6269    0.0000 C   0  0  0  0  0  0  0  0  0  0  0  0
    2.2460   -1.4085    0.0000 C   0  0  0  0  0  0  0  0  0  0  0  0
    0.7500   -1.2990    0.0000 C   0  0  0  0  0  0  0  0  0  0  0  0
    1.5000    0.0000    0.0000 C   0  0  0  0  0  0  0  0  0  0  0  0
    0.7500    1.2990    0.0000 C   0  0  0  0  0  0  0  0  0  0  0  0
   -0.7500    1.2990    0.0000 C   0  0  0  0  0  0  0  0  0  0  0  0
   -1.5000    0.0000    0.0000 C   0  0  0  0  0  0  0  0  0  0  0  0
   -0.7500   -1.2990    0.0000 C   0  0  0  0  0  0  0  0  0  0  0  0
  1  2  1  0
  2  3  1  0
  3  4  1  0
  4  5  1  0
  5  6  1  0
  6  7  1  0
  7  8  1  0
  8  9  1  0
  9 10  1  0
 10 11  1  0
 11 12  1  0
 12 13  1  0
 13 14  1  0
 14 15  1  0
 15 16  1  0
 16 17  1  0
 17 18  1  0
 18 19  1  0
 19 20  1  0
 20 21  1  0
 21 22  1  0
 22 23  1  0
 23 24  1  0
 24 25  1  0
 25 26  1  0
 26 27  1  0
 27 28  1  0
 28 29  1  0
 29 30  1  0
 30 31  1  0
 31 32  1  0
 32 33  1  0
 33 34  1  0
 34 35  1  0
 35 36  1  0
 36 37  1  0
 37 38  1  0
 38 39  1  0
 39 40  1  0
 40 41  1  0
 41 42  1  0
 42 43  1  0
 43 44  1  0
 44 45  1  0
 45 46  1  0
 46 47  1  0
 47 48  1  0
 48 49  1  0
 49 50  1  0
 50 51  1  0
 51 52  1  0
 52 53  1  0
 53 54  1  0
 54 55  1  0
 55 56  1  0
 56 57  1  0
 57 58  1  0
 58 59  1  0
 59 60  1  0
 60 61  1  0
 61 62  1  0
 62 63  1  0
 63 64  1  0
 64 65  1  0
 65 66  1  0
 66 67  1  0
 67 68  1  0
 68 69  1  0
 69 70  1  0
 70 71  1  0
 71 72  1  0
 72 73  1  0
 73 74  1  0
 74 75  1  0
 75 76  1  0
 76 77  1  0
 77 78  1  0
 78 79  1  0
 79 80  1  0
 80 81  1  0
 81 82  1  0
 82 83  1  0
 83 84  1  0
 84 85  1  0
 85 86  1  0
 86 87  1  0
 87 88  1  0
 88 89  1  0
 89 90  1  0
 90 91  2  0
 91  2  1  0
 91 86  1  0
M  END
>  <Title>  (1093) 
idABOCgen14

$$$$

     RDKit          2D

 92 93  0  0  0  0  0  0  0  0999 V2000
   -0.0134   -3.0895    0.0000 C   0  0  0  0  0  0  0  0  0  0  0  0
    1.2623   -3.8785    0.0000 C   0  0  0  0  0  0  0  0  0  0  0  0
    0.5247   -5.1846    0.0000 C   0  0  0  0  0  0  0  0  0  0  0  0
   -0.1069   -6.5451    0.0000 C   0  0  0  0  0  0  0  0  0  0  0  0
   -0.6284   -7.9516    0.0000 C   0  0  0  0  0  0  0  0  0  0  0  0
   -1.0364   -9.3950    0.0000 C   0  0  0  0  0  0  0  0  0  0  0  0
   -1.3286  -10.8663    0.0000 C   0  0  0  0  0  0  0  0  0  0  0  0
   -1.5028  -12.3561    0.0000 C   0  0  0  0  0  0  0  0  0  0  0  0
   -1.5582  -13.8551    0.0000 C   0  0  0  0  0  0  0  0  0  0  0  0
   -1.4943  -15.3537    0.0000 C   0  0  0  0  0  0  0  0  0  0  0  0
   -1.3116  -16.8425    0.0000 C   0  0  0  0  0  0  0  0  0  0  0  0
   -1.0111  -18.3121    0.0000 C   0  0  0  0  0  0  0  0  0  0  0  0
   -0.5948  -19.7532    0.0000 C   0  0  0  0  0  0  0  0  0  0  0  0
   -0.0654  -21.1567    0.0000 C   0  0  0  0  0  0  0  0  0  0  0  0
    0.5739  -22.5136    0.0000 C   0  0  0  0  0  0  0  0  0  0  0  0
    1.3190  -23.8155    0.0000 C   0  0  0  0  0  0  0  0  0  0  0  0
    2.1651  -25.0541    0.0000 C   0  0  0  0  0  0  0  0  0  0  0  0
    3.1070  -26.2215    0.0000 C   0  0  0  0  0  0  0  0  0  0  0  0
    4.1387  -27.3104    0.0000 C   0  0  0  0  0  0  0  0  0  0  0  0
    5.2536  -28.3138    0.0000 C   0  0  0  0  0  0  0  0  0  0  0  0
    6.4447  -29.2256    0.0000 C   0  0  0  0  0  0  0  0  0  0  0  0
    7.7045  -30.0398    0.0000 C   0  0  0  0  0  0  0  0  0  0  0  0
    9.0250  -30.7514    0.0000 C   0  0  0  0  0  0  0  0  0  0  0  0
   10.3978  -31.3557    0.0000 C   0  0  0  0  0  0  0  0  0  0  0  0
   11.8143  -31.8491    0.0000 C   0  0  0  0  0  0  0  0  0  0  0  0
   13.2656  -32.2285    0.0000 C   0  0  0  0  0  0  0  0  0  0  0  0
   14.7424  -32.4913    0.0000 C   0  0  0  0  0  0  0  0  0  0  0  0
   16.2354  -32.6359    0.0000 C   0  0  0  0  0  0  0  0  0  0  0  0
   17.7352  -32.6615    0.0000 C   0  0  0  0  0  0  0  0  0  0  0  0
   19.2322  -32.5678    0.0000 C   0  0  0  0  0  0  0  0  0  0  0  0
   20.7171  -32.3555    0.0000 C   0  0  0  0  0  0  0  0  0  0  0  0
   22.1805  -32.0258    0.0000 C   0  0  0  0  0  0  0  0  0  0  0  0
   23.6130  -31.5810    0.0000 C   0  0  0  0  0  0  0  0  0  0  0  0
   25.0056  -31.0237    0.0000 C   0  0  0  0  0  0  0  0  0  0  0  0
   26.3496  -30.3576    0.0000 C   0  0  0  0  0  0  0  0  0  0  0  0
   27.6364  -29.5868    0.0000 C   0  0  0  0  0  0  0  0  0  0  0  0
   28.8579  -28.7162    0.0000 C   0  0  0  0  0  0  0  0  0  0  0  0
   30.0064  -27.7513    0.0000 C   0  0  0  0  0  0  0  0  0  0  0  0
   31.0745  -26.6982    0.0000 C   0  0  0  0  0  0  0  0  0  0  0  0
   32.0556  -25.5635    0.0000 C   0  0  0  0  0  0  0  0  0  0  0  0
   32.9435  -24.3545    0.0000 C   0  0  0  0  0  0  0  0  0  0  0  0
   33.7325  -23.0788    0.0000 C   0  0  0  0  0  0  0  0  0  0  0  0
   34.4177  -21.7444    0.0000 C   0  0  0  0  0  0  0  0  0  0  0  0
   34.9947  -20.3598    0.0000 C   0  0  0  0  0  0  0  0  0  0  0  0
   35.4598  -18.9338    0.0000 C   0  0  0  0  0  0  0  0  0  0  0  0
   35.8102  -17.4753    0.0000 C   0  0  0  0  0  0  0  0  0  0  0  0
   36.0436  -15.9935    0.0000 C   0  0  0  0  0  0  0  0  0  0  0  0
   36.1585  -14.4980    0.0000 C   0  0  0  0  0  0  0  0  0  0  0  0
   36.1542  -12.9980    0.0000 C   0  0  0  0  0  0  0  0  0  0  0  0
   36.0308  -11.5030    0.0000 C   0  0  0  0  0  0  0  0  0  0  0  0
   35.7890  -10.0227    0.0000 C   0  0  0  0  0  0  0  0  0  0  0  0
   35.4304   -8.5662    0.0000 C   0  0  0  0  0  0  0  0  0  0  0  0
   34.9571   -7.1428    0.0000 C   0  0  0  0  0  0  0  0  0  0  0  0
   34.3723   -5.7615    0.0000 C   0  0  0  0  0  0  0  0  0  0  0  0
   33.6796   -4.4310    0.0000 C   0  0  0  0  0  0  0  0  0  0  0  0
   32.8833   -3.1598    0.0000 C   0  0  0  0  0  0  0  0  0  0  0  0
   31.9886   -1.9559    0.0000 C   0  0  0  0  0  0  0  0  0  0  0  0
   31.0010   -0.8268    0.0000 C   0  0  0  0  0  0  0  0  0  0  0  0
   29.9269    0.2202    0.0000 C   0  0  0  0  0  0  0  0  0  0  0  0
   28.7730    1.1786    0.0000 C   0  0  0  0  0  0  0  0  0  0  0  0
   27.5466    2.0422    0.0000 C   0  0  0  0  0  0  0  0  0  0  0  0
   26.2554    2.8057    0.0000 C   0  0  0  0  0  0  0  0  0  0  0  0
   24.9077    3.4642    0.0000 C   0  0  0  0  0  0  0  0  0  0  0  0
   23.5119    4.0135    0.0000 C   0  0  0  0  0  0  0  0  0  0  0  0
   22.0769    4.4502    0.0000 C   0  0  0  0  0  0  0  0  0  0  0  0
   20.6117    4.7715    0.0000 C   0  0  0  0  0  0  0  0  0  0  0  0
   19.1256    4.9754    0.0000 C   0  0  0  0  0  0  0  0  0  0  0  0
   17.6280    5.0606    0.0000 C   0  0  0  0  0  0  0  0  0  0  0  0
   16.1284    5.0265    0.0000 C   0  0  0  0  0  0  0  0  0  0  0  0
   14.6363    4.8734    0.0000 C   0  0  0  0  0  0  0  0  0  0  0  0
   13.1610    4.6022    0.0000 C   0  0  0  0  0  0  0  0  0  0  0  0
   11.7119    4.2147    0.0000 C   0  0  0  0  0  0  0  0  0  0  0  0
   10.2982    3.7132    0.0000 C   0  0  0  0  0  0  0  0  0  0  0  0
    8.9288    3.1010    0.0000 C   0  0  0  0  0  0  0  0  0  0  0  0
    7.6124    2.3820    0.0000 C   0  0  0  0  0  0  0  0  0  0  0  0
    6.3572    1.5606    0.0000 C   0  0  0  0  0  0  0  0  0  0  0  0
    5.1713    0.6421    0.0000 C   0  0  0  0  0  0  0  0  0  0  0  0
    4.0621   -0.3677    0.0000 C   0  0  0  0  0  0  0  0  0  0  0  0
    3.0367   -1.4624    0.0000 C   0  0  0  0  0  0  0  0  0  0  0  0
    3.3705    0.0000    0.0000 C   0  0  0  0  0  0  0  0  0  0  0  0
    3.0367    1.4624    0.0000 C   0  0  0  0  0  0  0  0  0  0  0  0
    2.1015    2.6351    0.0000 C   0  0  0  0  0  0  0  0  0  0  0  0
    0.7500    3.2860    0.0000 C   0  0  0  0  0  0  0  0  0  0  0  0
   -0.7500    3.2860    0.0000 C   0  0  0  0  0  0  0  0  0  0  0  0
   -2.1015    2.6351    0.0000 C   0  0  0  0  0  0  0  0  0  0  0  0
   -3.0367    1.4624    0.0000 C   0  0  0  0  0  0  0  0  0  0  0  0
   -3.3705    0.0000    0.0000 C   0  0  0  0  0  0  0  0  0  0  0  0
   -3.0367   -1.4624    0.0000 C   0  0  0  0  0  0  0  0  0  0  0  0
   -2.1015   -2.6351    0.0000 C   0  0  0  0  0  0  0  0  0  0  0  0
   -0.7500   -3.2860    0.0000 C   0  0  0  0  0  0  0  0  0  0  0  0
    0.7500   -3.2860    0.0000 C   0  0  0  0  0  0  0  0  0  0  0  0
    2.1015   -2.6351    0.0000 C   0  0  0  0  0  0  0  0  0  0  0  0
  1  2  1  0
  2  3  1  0
  3  4  1  0
  4  5  1  0
  5  6  1  0
  6  7  1  0
  7  8  1  0
  8  9  1  0
  9 10  1  0
 10 11  1  0
 11 12  1  0
 12 13  1  0
 13 14  1  0
 14 15  1  0
 15 16  1  0
 16 17  1  0
 17 18  1  0
 18 19  1  0
 19 20  1  0
 20 21  1  0
 21 22  1  0
 22 23  1  0
 23 24  1  0
 24 25  1  0
 25 26  1  0
 26 27  1  0
 27 28  1  0
 28 29  1  0
 29 30  1  0
 30 31  1  0
 31 32  1  0
 32 33  1  0
 33 34  1  0
 34 35  1  0
 35 36  1  0
 36 37  1  0
 37 38  1  0
 38 39  1  0
 39 40  1  0
 40 41  1  0
 41 42  1  0
 42 43  1  0
 43 44  1  0
 44 45  1  0
 45 46  1  0
 46 47  1  0
 47 48  1  0
 48 49  1  0
 49 50  1  0
 50 51  1  0
 51 52  1  0
 52 53  1  0
 53 54  1  0
 54 55  1  0
 55 56  1  0
 56 57  1  0
 57 58  1  0
 58 59  1  0
 59 60  1  0
 60 61  1  0
 61 62  1  0
 62 63  1  0
 63 64  1  0
 64 65  1  0
 65 66  1  0
 66 67  1  0
 67 68  1  0
 68 69  1  0
 69 70  1  0
 70 71  1  0
 71 72  1  0
 72 73  1  0
 73 74  1  0
 74 75  1  0
 75 76  1  0
 76 77  1  0
 77 78  1  0
 78 79  1  0
 79 80  1  0
 80 81  1  0
 81 82  1  0
 82 83  1  0
 83 84  1  0
 84 85  1  0
 85 86  1  0
 86 87  1  0
 87 88  2  0
 88 89  1  0
 89 90  2  0
 90 91  1  0
 91 92  2  0
 92  2  1  0
 92 79  1  0
M  END
>  <Title>  (1094) 
idABODgen14

$$$$

     RDKit          2D

  4  3  0  0  0  0  0  0  0  0999 V2000
    0.0000    0.0000    0.0000 C   0  0  0  0  0  0  0  0  0  0  0  0
    1.2990    0.7500    0.0000 C   0  0  0  0  0  0  0  0  0  0  0  0
    2.5981   -0.0000    0.0000 C   0  0  0  0  0  0  0  0  0  0  0  0
    1.2990    2.2500    0.0000 O   0  0  0  0  0  0  0  0  0  0  0  0
  1  2  1  0
  2  3  1  0
  2  4  1  0
M  END
>  <Title>  (1095) 
idABOEgen14

$$$$

     RDKit          2D

 35 39  0  0  0  0  0  0  0  0999 V2000
   -3.0000   -2.5981    0.0000 C   0  0  0  0  0  0  0  0  0  0  0  0
   -1.5000   -2.5981    0.0000 C   0  0  0  0  0  0  0  0  0  0  0  0
   -0.7500   -3.8971    0.0000 C   0  0  0  0  0  0  0  0  0  0  0  0
    0.7500   -3.8971    0.0000 C   0  0  0  0  0  0  0  0  0  0  0  0
    1.5000   -2.5981    0.0000 C   0  0  0  0  0  0  0  0  0  0  0  0
    3.0000   -2.5981    0.0000 C   0  0  0  0  0  0  0  0  0  0  0  0
    3.7500   -1.2990    0.0000 O   0  0  0  0  0  0  0  0  0  0  0  0
    3.7500   -3.8971    0.0000 N   0  0  0  0  0  0  0  0  0  0  0  0
    5.2500   -3.8971    0.0000 C   0  0  0  0  0  0  0  0  0  0  0  0
    6.1317   -2.6836    0.0000 N   0  0  0  0  0  0  0  0  0  0  0  0
    7.5583   -3.1471    0.0000 N   0  0  0  0  0  0  0  0  0  0  0  0
    7.5583   -4.6471    0.0000 N   0  0  0  0  0  0  0  0  0  0  0  0
    6.1317   -5.1106    0.0000 N   0  0  0  0  0  0  0  0  0  0  0  0
    5.6682   -6.5372    0.0000 C   0  0  0  0  0  0  0  0  0  0  0  0
    6.5498   -7.7508    0.0000 C   0  0  0  0  0  0  0  0  0  0  0  0
    5.6682   -8.9643    0.0000 C   0  0  0  0  0  0  0  0  0  0  0  0
    4.2416   -8.5008    0.0000 C   0  0  0  0  0  0  0  0  0  0  0  0
    3.0280   -9.3824    0.0000 O   0  0  0  0  0  0  0  0  0  0  0  0
    1.6577   -8.7723    0.0000 C   0  0  0  0  0  0  0  0  0  0  0  0
    1.5009   -7.2805    0.0000 O   0  0  0  0  0  0  0  0  0  0  0  0
    0.4442   -9.6540    0.0000 N   0  0  0  0  0  0  0  0  0  0  0  0
   -0.9261   -9.0439    0.0000 C   0  0  0  0  0  0  0  0  0  0  0  0
   -1.0829   -7.5521    0.0000 N   0  0  0  0  0  0  0  0  0  0  0  0
   -2.4532   -6.9420    0.0000 N   0  0  0  0  0  0  0  0  0  0  0  0
   -3.6668   -7.8237    0.0000 N   0  0  0  0  0  0  0  0  0  0  0  0
   -3.5100   -9.3155    0.0000 N   0  0  0  0  0  0  0  0  0  0  0  0
   -2.1396   -9.9256    0.0000 N   0  0  0  0  0  0  0  0  0  0  0  0
    4.2416   -7.0008    0.0000 C   0  0  0  0  0  0  0  0  0  0  0  0
    3.0280   -6.1191    0.0000 O   0  0  0  0  0  0  0  0  0  0  0  0
    0.7500   -1.2990    0.0000 C   0  0  0  0  0  0  0  0  0  0  0  0
    1.5000    0.0000    0.0000 C   0  0  0  0  0  0  0  0  0  0  0  0
    0.7500    1.2990    0.0000 C   0  0  0  0  0  0  0  0  0  0  0  0
   -0.7500    1.2990    0.0000 C   0  0  0  0  0  0  0  0  0  0  0  0
   -1.5000    0.0000    0.0000 C   0  0  0  0  0  0  0  0  0  0  0  0
   -0.7500   -1.2990    0.0000 C   0  0  0  0  0  0  0  0  0  0  0  0
  1  2  1  0
  2  3  2  0
  3  4  1  0
  4  5  2  0
  5  6  1  0
  6  7  2  0
  6  8  1  0
  8  9  1  0
  9 10  2  0
 10 11  1  0
 11 12  2  0
 12 13  1  0
 13 14  1  0
 14 15  2  0
 15 16  1  0
 16 17  2  0
 17 18  1  0
 18 19  1  0
 19 20  2  0
 19 21  1  0
 21 22  1  0
 22 23  2  0
 23 24  1  0
 24 25  2  0
 25 26  1  0
 26 27  2  0
 17 28  1  0
 28 29  2  0
  5 30  1  0
 30 31  2  0
 31 32  1  0
 32 33  2  0
 33 34  1  0
 34 35  2  0
 35  2  1  0
 13  9  1  0
 28 14  1  0
 35 30  1  0
 27 22  1  0
M  END
>  <Title>  (1096) 
idABOFgen14

$$$$

     RDKit          2D

 22 24  0  0  0  0  0  0  0  0999 V2000
    3.0000    0.0000    0.0000 C   0  0  0  0  0  0  0  0  0  0  0  0
    1.5000    0.0000    0.0000 C   0  0  0  0  0  0  0  0  0  0  0  0
    0.7500   -1.2990    0.0000 C   0  0  0  0  0  0  0  0  0  0  0  0
   -0.7500   -1.2990    0.0000 C   0  0  0  0  0  0  0  0  0  0  0  0
   -1.5000    0.0000    0.0000 C   0  0  0  0  0  0  0  0  0  0  0  0
   -3.0000    0.0000    0.0000 C   0  0  0  0  0  0  0  0  0  0  0  0
   -3.7500   -1.2990    0.0000 O   0  0  0  0  0  0  0  0  0  0  0  0
   -3.7500    1.2990    0.0000 N   0  0  0  0  0  0  0  0  0  0  0  0
   -5.2500    1.2990    0.0000 C   0  0  0  0  0  0  0  0  0  0  0  0
   -6.1317    0.0855    0.0000 N   0  0  0  0  0  0  0  0  0  0  0  0
   -7.5583    0.5490    0.0000 N   0  0  0  0  0  0  0  0  0  0  0  0
   -7.5583    2.0490    0.0000 N   0  0  0  0  0  0  0  0  0  0  0  0
   -6.1317    2.5126    0.0000 N   0  0  0  0  0  0  0  0  0  0  0  0
   -5.6682    3.9391    0.0000 C   0  0  0  0  0  0  0  0  0  0  0  0
   -4.2009    4.2510    0.0000 C   0  0  0  0  0  0  0  0  0  0  0  0
   -3.7374    5.6776    0.0000 C   0  0  0  0  0  0  0  0  0  0  0  0
   -4.7411    6.7923    0.0000 C   0  0  0  0  0  0  0  0  0  0  0  0
   -4.2776    8.2189    0.0000 O   0  0  0  0  0  0  0  0  0  0  0  0
   -6.2083    6.4805    0.0000 C   0  0  0  0  0  0  0  0  0  0  0  0
   -6.6718    5.0539    0.0000 C   0  0  0  0  0  0  0  0  0  0  0  0
   -0.7500    1.2990    0.0000 C   0  0  0  0  0  0  0  0  0  0  0  0
    0.7500    1.2990    0.0000 C   0  0  0  0  0  0  0  0  0  0  0  0
  1  2  1  0
  2  3  1  0
  3  4  2  0
  4  5  1  0
  5  6  1  0
  6  7  2  0
  6  8  1  0
  8  9  1  0
  9 10  2  0
 10 11  1  0
 11 12  2  0
 12 13  1  0
 13 14  1  0
 14 15  2  0
 15 16  1  0
 16 17  2  0
 17 18  1  0
 17 19  1  0
 19 20  2  0
  5 21  1  0
 21 22  1  0
 22  2  1  0
 13  9  1  0
 20 14  1  0
M  END
>  <Title>  (1097) 
idABOGgen14

$$$$

     RDKit          2D

  8  8  0  0  0  0  0  0  0  0999 V2000
    3.2286   -0.0000    0.0000 C   0  0  0  0  0  0  0  0  0  0  0  0
    1.7286    0.0000    0.0000 C   0  0  0  0  0  0  0  0  0  0  0  0
    1.0777    1.3515    0.0000 C   0  0  0  0  0  0  0  0  0  0  0  0
   -0.3846    1.6852    0.0000 C   0  0  0  0  0  0  0  0  0  0  0  0
   -1.5574    0.7500    0.0000 C   0  0  0  0  0  0  0  0  0  0  0  0
   -1.5574   -0.7500    0.0000 C   0  0  0  0  0  0  0  0  0  0  0  0
   -0.3846   -1.6852    0.0000 N   0  0  0  0  0  0  0  0  0  0  0  0
    1.0777   -1.3515    0.0000 C   0  0  0  0  0  0  0  0  0  0  0  0
  1  2  1  0
  2  3  1  0
  3  4  1  0
  4  5  1  0
  5  6  1  0
  6  7  1  0
  7  8  1  0
  8  2  1  0
M  END
>  <Title>  (1098) 
idABOHgen14

$$$$

     RDKit          2D

 34 38  0  0  0  0  0  0  0  0999 V2000
   10.0051   -0.5013    0.0000 C   0  0  0  0  0  0  0  0  0  0  0  0
    8.5134   -0.6581    0.0000 C   0  0  0  0  0  0  0  0  0  0  0  0
    7.7634   -1.9571    0.0000 C   0  0  0  0  0  0  0  0  0  0  0  0
    6.2961   -1.6453    0.0000 C   0  0  0  0  0  0  0  0  0  0  0  0
    5.1814   -2.6490    0.0000 O   0  0  0  0  0  0  0  0  0  0  0  0
    5.4933   -4.1162    0.0000 C   0  0  0  0  0  0  0  0  0  0  0  0
    6.9199   -4.5797    0.0000 O   0  0  0  0  0  0  0  0  0  0  0  0
    4.3786   -5.1199    0.0000 N   0  0  0  0  0  0  0  0  0  0  0  0
    4.6904   -6.5871    0.0000 C   0  0  0  0  0  0  0  0  0  0  0  0
    6.0607   -7.1972    0.0000 N   0  0  0  0  0  0  0  0  0  0  0  0
    5.9040   -8.6890    0.0000 N   0  0  0  0  0  0  0  0  0  0  0  0
    4.4367   -9.0009    0.0000 N   0  0  0  0  0  0  0  0  0  0  0  0
    3.6867   -7.7018    0.0000 N   0  0  0  0  0  0  0  0  0  0  0  0
    2.1950   -7.5450    0.0000 C   0  0  0  0  0  0  0  0  0  0  0  0
    1.4450   -6.2460    0.0000 C   0  0  0  0  0  0  0  0  0  0  0  0
   -0.0223   -6.5579    0.0000 C   0  0  0  0  0  0  0  0  0  0  0  0
   -0.1791   -8.0497    0.0000 C   0  0  0  0  0  0  0  0  0  0  0  0
   -1.4781   -8.7997    0.0000 C   0  0  0  0  0  0  0  0  0  0  0  0
   -1.4781  -10.2997    0.0000 O   0  0  0  0  0  0  0  0  0  0  0  0
   -2.7771   -8.0497    0.0000 N   0  0  0  0  0  0  0  0  0  0  0  0
   -4.0762   -8.7997    0.0000 C   0  0  0  0  0  0  0  0  0  0  0  0
   -4.0762  -10.2997    0.0000 N   0  0  0  0  0  0  0  0  0  0  0  0
   -5.3752  -11.0497    0.0000 N   0  0  0  0  0  0  0  0  0  0  0  0
   -6.6743  -10.2997    0.0000 N   0  0  0  0  0  0  0  0  0  0  0  0
   -6.6743   -8.7997    0.0000 N   0  0  0  0  0  0  0  0  0  0  0  0
   -5.3752   -8.0497    0.0000 N   0  0  0  0  0  0  0  0  0  0  0  0
    1.1913   -8.6598    0.0000 C   0  0  0  0  0  0  0  0  0  0  0  0
    1.5031  -10.1270    0.0000 O   0  0  0  0  0  0  0  0  0  0  0  0
    6.1393   -0.1535    0.0000 C   0  0  0  0  0  0  0  0  0  0  0  0
    4.9258    0.7282    0.0000 C   0  0  0  0  0  0  0  0  0  0  0  0
    5.0826    2.2200    0.0000 C   0  0  0  0  0  0  0  0  0  0  0  0
    6.4529    2.8301    0.0000 C   0  0  0  0  0  0  0  0  0  0  0  0
    7.6664    1.9484    0.0000 C   0  0  0  0  0  0  0  0  0  0  0  0
    7.5097    0.4566    0.0000 C   0  0  0  0  0  0  0  0  0  0  0  0
  1  2  1  0
  2  3  2  0
  3  4  1  0
  4  5  1  0
  5  6  1  0
  6  7  2  0
  6  8  1  0
  8  9  1  0
  9 10  2  0
 10 11  1  0
 11 12  2  0
 12 13  1  0
 13 14  1  0
 14 15  2  0
 15 16  1  0
 16 17  2  0
 17 18  1  0
 18 19  2  0
 18 20  1  0
 20 21  1  0
 21 22  2  0
 22 23  1  0
 23 24  2  0
 24 25  1  0
 25 26  2  0
 17 27  1  0
 27 28  2  0
  4 29  1  0
 29 30  2  0
 30 31  1  0
 31 32  2  0
 32 33  1  0
 33 34  2  0
 34  2  1  0
 13  9  1  0
 27 14  1  0
 34 29  1  0
 26 21  1  0
M  END
>  <Title>  (1099) 
idABOIgen14

$$$$

     RDKit          2D

  7  7  0  0  0  0  0  0  0  0999 V2000
    3.0000    0.0000    0.0000 C   0  0  0  0  0  0  0  0  0  0  0  0
    1.5000    0.0000    0.0000 C   0  0  0  0  0  0  0  0  0  0  0  0
    0.7500   -1.2990    0.0000 C   0  0  0  0  0  0  0  0  0  0  0  0
   -0.7500   -1.2990    0.0000 C   0  0  0  0  0  0  0  0  0  0  0  0
   -1.5000    0.0000    0.0000 C   0  0  0  0  0  0  0  0  0  0  0  0
   -0.7500    1.2990    0.0000 C   0  0  0  0  0  0  0  0  0  0  0  0
    0.7500    1.2990    0.0000 N   0  0  0  0  0  0  0  0  0  0  0  0
  1  2  1  0
  2  3  1  0
  3  4  1  0
  4  5  2  0
  5  6  1  0
  6  7  2  0
  7  2  1  0
M  END
>  <Title>  (1100) 
idABOJgen14

$$$$

     RDKit          2D

 35 39  0  0  0  0  0  0  0  0999 V2000
   10.0051   -0.5013    0.0000 C   0  0  0  0  0  0  0  0  0  0  0  0
    8.5134   -0.6581    0.0000 C   0  0  0  0  0  0  0  0  0  0  0  0
    7.7634   -1.9571    0.0000 C   0  0  0  0  0  0  0  0  0  0  0  0
    6.2961   -1.6453    0.0000 C   0  0  0  0  0  0  0  0  0  0  0  0
    5.1814   -2.6490    0.0000 O   0  0  0  0  0  0  0  0  0  0  0  0
    5.4933   -4.1162    0.0000 C   0  0  0  0  0  0  0  0  0  0  0  0
    6.9199   -4.5797    0.0000 O   0  0  0  0  0  0  0  0  0  0  0  0
    4.3786   -5.1199    0.0000 N   0  0  0  0  0  0  0  0  0  0  0  0
    4.6904   -6.5871    0.0000 C   0  0  0  0  0  0  0  0  0  0  0  0
    6.0607   -7.1972    0.0000 N   0  0  0  0  0  0  0  0  0  0  0  0
    5.9040   -8.6890    0.0000 N   0  0  0  0  0  0  0  0  0  0  0  0
    4.4367   -9.0009    0.0000 N   0  0  0  0  0  0  0  0  0  0  0  0
    3.6867   -7.7018    0.0000 N   0  0  0  0  0  0  0  0  0  0  0  0
    2.1950   -7.5450    0.0000 N   0  0  0  0  0  0  0  0  0  0  0  0
    1.4450   -6.2460    0.0000 C   0  0  0  0  0  0  0  0  0  0  0  0
   -0.0223   -6.5579    0.0000 C   0  0  0  0  0  0  0  0  0  0  0  0
   -0.1791   -8.0497    0.0000 N   0  0  0  0  0  0  0  0  0  0  0  0
   -1.4781   -8.7997    0.0000 C   0  0  0  0  0  0  0  0  0  0  0  0
   -1.4781  -10.2997    0.0000 O   0  0  0  0  0  0  0  0  0  0  0  0
   -2.7771   -8.0497    0.0000 N   0  0  0  0  0  0  0  0  0  0  0  0
   -4.0762   -8.7997    0.0000 C   0  0  0  0  0  0  0  0  0  0  0  0
   -4.0762  -10.2997    0.0000 N   0  0  0  0  0  0  0  0  0  0  0  0
   -5.3752  -11.0497    0.0000 N   0  0  0  0  0  0  0  0  0  0  0  0
   -6.6743  -10.2997    0.0000 N   0  0  0  0  0  0  0  0  0  0  0  0
   -6.6743   -8.7997    0.0000 N   0  0  0  0  0  0  0  0  0  0  0  0
   -5.3752   -8.0497    0.0000 N   0  0  0  0  0  0  0  0  0  0  0  0
    1.1913   -8.6598    0.0000 C   0  0  0  0  0  0  0  0  0  0  0  0
    1.5031  -10.1270    0.0000 O   0  0  0  0  0  0  0  0  0  0  0  0
    6.1393   -0.1535    0.0000 C   0  0  0  0  0  0  0  0  0  0  0  0
    4.9258    0.7282    0.0000 C   0  0  0  0  0  0  0  0  0  0  0  0
    5.0826    2.2200    0.0000 C   0  0  0  0  0  0  0  0  0  0  0  0
    6.4529    2.8301    0.0000 C   0  0  0  0  0  0  0  0  0  0  0  0
    6.6097    4.3218    0.0000 O   0  0  0  0  0  0  0  0  0  0  0  0
    7.6664    1.9484    0.0000 C   0  0  0  0  0  0  0  0  0  0  0  0
    7.5097    0.4566    0.0000 C   0  0  0  0  0  0  0  0  0  0  0  0
  1  2  1  0
  2  3  2  0
  3  4  1  0
  4  5  1  0
  5  6  1  0
  6  7  2  0
  6  8  1  0
  8  9  1  0
  9 10  2  0
 10 11  1  0
 11 12  2  0
 12 13  1  0
 13 14  1  0
 14 15  1  0
 15 16  1  0
 16 17  1  0
 17 18  1  0
 18 19  2  0
 18 20  1  0
 20 21  1  0
 21 22  2  0
 22 23  1  0
 23 24  2  0
 24 25  1  0
 25 26  2  0
 17 27  1  0
 27 28  2  0
  4 29  1  0
 29 30  2  0
 30 31  1  0
 31 32  2  0
 32 33  1  0
 32 34  1  0
 34 35  2  0
 35  2  1  0
 13  9  1  0
 27 14  1  0
 35 29  1  0
 26 21  1  0
M  END
>  <Title>  (1101) 
idABOKgen14

$$$$

     RDKit          2D

 10  9  0  0  0  0  0  0  0  0999 V2000
    0.0000    0.0000    0.0000 C   0  0  0  0  0  0  0  0  0  0  0  0
    1.2990    0.7500    0.0000 C   0  0  0  0  0  0  0  0  0  0  0  0
    2.5981   -0.0000    0.0000 C   0  0  0  0  0  0  0  0  0  0  0  0
    3.8971    0.7500    0.0000 C   0  0  0  0  0  0  0  0  0  0  0  0
    5.1962   -0.0000    0.0000 N   0  0  0  0  0  0  0  0  0  0  0  0
    6.4952    0.7500    0.0000 C   0  0  0  0  0  0  0  0  0  0  0  0
    6.4952    2.2500    0.0000 O   0  0  0  0  0  0  0  0  0  0  0  0
    7.7942   -0.0000    0.0000 C   0  0  0  0  0  0  0  0  0  0  0  0
    9.0933    0.7500    0.0000 C   0  0  0  0  0  0  0  0  0  0  0  0
   10.3923   -0.0000    0.0000 C   0  0  0  0  0  0  0  0  0  0  0  0
  1  2  1  0
  2  3  2  3
  3  4  1  0
  4  5  1  0
  5  6  1  0
  6  7  2  0
  6  8  1  0
  8  9  1  0
  9 10  1  0
M  END
>  <Title>  (1102) 
idABOLgen14

$$$$

     RDKit          2D

 33 37  0  0  0  0  0  0  0  0999 V2000
   -3.0000   -2.5981    0.0000 C   0  0  0  0  0  0  0  0  0  0  0  0
   -1.5000   -2.5981    0.0000 C   0  0  0  0  0  0  0  0  0  0  0  0
   -0.7500   -3.8971    0.0000 C   0  0  0  0  0  0  0  0  0  0  0  0
    0.7500   -3.8971    0.0000 C   0  0  0  0  0  0  0  0  0  0  0  0
    1.5000   -2.5981    0.0000 C   0  0  0  0  0  0  0  0  0  0  0  0
    3.0000   -2.5981    0.0000 C   0  0  0  0  0  0  0  0  0  0  0  0
    3.7500   -1.2990    0.0000 O   0  0  0  0  0  0  0  0  0  0  0  0
    3.7500   -3.8971    0.0000 N   0  0  0  0  0  0  0  0  0  0  0  0
    5.2500   -3.8971    0.0000 C   0  0  0  0  0  0  0  0  0  0  0  0
    6.1317   -2.6836    0.0000 N   0  0  0  0  0  0  0  0  0  0  0  0
    7.5583   -3.1471    0.0000 N   0  0  0  0  0  0  0  0  0  0  0  0
    7.5583   -4.6471    0.0000 N   0  0  0  0  0  0  0  0  0  0  0  0
    6.1317   -5.1106    0.0000 N   0  0  0  0  0  0  0  0  0  0  0  0
    5.6682   -6.5372    0.0000 N   0  0  0  0  0  0  0  0  0  0  0  0
    4.3316   -7.2182    0.0000 C   0  0  0  0  0  0  0  0  0  0  0  0
    5.0126   -8.5547    0.0000 C   0  0  0  0  0  0  0  0  0  0  0  0
    4.5491   -9.9813    0.0000 C   0  0  0  0  0  0  0  0  0  0  0  0
    5.5528  -11.0960    0.0000 O   0  0  0  0  0  0  0  0  0  0  0  0
    3.0819  -10.2932    0.0000 N   0  0  0  0  0  0  0  0  0  0  0  0
    2.6184  -11.7198    0.0000 C   0  0  0  0  0  0  0  0  0  0  0  0
    1.1511  -12.0316    0.0000 N   0  0  0  0  0  0  0  0  0  0  0  0
    0.6876  -13.4582    0.0000 N   0  0  0  0  0  0  0  0  0  0  0  0
    1.6913  -14.5729    0.0000 N   0  0  0  0  0  0  0  0  0  0  0  0
    3.1585  -14.2611    0.0000 N   0  0  0  0  0  0  0  0  0  0  0  0
    3.6221  -12.8345    0.0000 N   0  0  0  0  0  0  0  0  0  0  0  0
    6.3491   -7.8737    0.0000 C   0  0  0  0  0  0  0  0  0  0  0  0
    7.7757   -8.3373    0.0000 O   0  0  0  0  0  0  0  0  0  0  0  0
    0.7500   -1.2990    0.0000 C   0  0  0  0  0  0  0  0  0  0  0  0
    1.5000    0.0000    0.0000 C   0  0  0  0  0  0  0  0  0  0  0  0
    0.7500    1.2990    0.0000 C   0  0  0  0  0  0  0  0  0  0  0  0
   -0.7500    1.2990    0.0000 C   0  0  0  0  0  0  0  0  0  0  0  0
   -1.5000    0.0000    0.0000 C   0  0  0  0  0  0  0  0  0  0  0  0
   -0.7500   -1.2990    0.0000 C   0  0  0  0  0  0  0  0  0  0  0  0
  1  2  1  0
  2  3  1  0
  3  4  2  0
  4  5  1  0
  5  6  1  0
  6  7  2  0
  6  8  1  0
  8  9  1  0
  9 10  2  0
 10 11  1  0
 11 12  2  0
 12 13  1  0
 13 14  1  0
 14 15  1  0
 15 16  2  0
 16 17  1  0
 17 18  2  0
 17 19  1  0
 19 20  1  0
 20 21  2  0
 21 22  1  0
 22 23  2  0
 23 24  1  0
 24 25  2  0
 16 26  1  0
 26 27  2  0
  5 28  1  0
 28 29  2  0
 29 30  1  0
 30 31  2  0
 31 32  1  0
 32 33  2  0
 33  2  1  0
 13  9  1  0
 26 14  1  0
 33 28  1  0
 25 20  1  0
M  END
>  <Title>  (1103) 
idABOMgen14

$$$$

     RDKit          2D

 22 24  0  0  0  0  0  0  0  0999 V2000
    3.0000    0.0000    0.0000 C   0  0  0  0  0  0  0  0  0  0  0  0
    1.5000    0.0000    0.0000 C   0  0  0  0  0  0  0  0  0  0  0  0
    0.7500   -1.2990    0.0000 C   0  0  0  0  0  0  0  0  0  0  0  0
   -0.7500   -1.2990    0.0000 C   0  0  0  0  0  0  0  0  0  0  0  0
   -1.5000    0.0000    0.0000 C   0  0  0  0  0  0  0  0  0  0  0  0
   -3.0000    0.0000    0.0000 C   0  0  0  0  0  0  0  0  0  0  0  0
   -3.7500   -1.2990    0.0000 O   0  0  0  0  0  0  0  0  0  0  0  0
   -3.7500    1.2990    0.0000 N   0  0  0  0  0  0  0  0  0  0  0  0
   -5.2500    1.2990    0.0000 C   0  0  0  0  0  0  0  0  0  0  0  0
   -6.1317    0.0855    0.0000 N   0  0  0  0  0  0  0  0  0  0  0  0
   -7.5583    0.5490    0.0000 N   0  0  0  0  0  0  0  0  0  0  0  0
   -7.5583    2.0490    0.0000 N   0  0  0  0  0  0  0  0  0  0  0  0
   -6.1317    2.5126    0.0000 N   0  0  0  0  0  0  0  0  0  0  0  0
   -5.6682    3.9391    0.0000 C   0  0  0  0  0  0  0  0  0  0  0  0
   -4.2009    4.2510    0.0000 C   0  0  0  0  0  0  0  0  0  0  0  0
   -3.7374    5.6776    0.0000 C   0  0  0  0  0  0  0  0  0  0  0  0
   -4.7411    6.7923    0.0000 C   0  0  0  0  0  0  0  0  0  0  0  0
   -4.2776    8.2189    0.0000 F   0  0  0  0  0  0  0  0  0  0  0  0
   -6.2083    6.4805    0.0000 C   0  0  0  0  0  0  0  0  0  0  0  0
   -6.6718    5.0539    0.0000 C   0  0  0  0  0  0  0  0  0  0  0  0
   -0.7500    1.2990    0.0000 C   0  0  0  0  0  0  0  0  0  0  0  0
    0.7500    1.2990    0.0000 C   0  0  0  0  0  0  0  0  0  0  0  0
  1  2  1  0
  2  3  1  0
  3  4  2  0
  4  5  1  0
  5  6  1  0
  6  7  2  0
  6  8  1  0
  8  9  1  0
  9 10  2  0
 10 11  1  0
 11 12  2  0
 12 13  1  0
 13 14  1  0
 14 15  2  0
 15 16  1  0
 16 17  2  0
 17 18  1  0
 17 19  1  0
 19 20  2  0
  5 21  1  0
 21 22  2  0
 22  2  1  0
 13  9  1  0
 20 14  1  0
M  END
>  <Title>  (1104) 
idABONgen14

$$$$

     RDKit          2D

 42 47  0  0  0  0  0  0  0  0999 V2000
   -3.1965   -1.7857    0.0000 C   0  0  0  0  0  0  0  0  0  0  0  0
   -1.8107   -2.3597    0.0000 C   0  0  0  0  0  0  0  0  0  0  0  0
   -1.8107   -3.8597    0.0000 C   0  0  0  0  0  0  0  0  0  0  0  0
   -0.7500   -4.9204    0.0000 C   0  0  0  0  0  0  0  0  0  0  0  0
    0.7500   -4.9204    0.0000 C   0  0  0  0  0  0  0  0  0  0  0  0
    1.8107   -3.8597    0.0000 C   0  0  0  0  0  0  0  0  0  0  0  0
    1.8107   -2.3597    0.0000 C   0  0  0  0  0  0  0  0  0  0  0  0
    3.1965   -1.7857    0.0000 C   0  0  0  0  0  0  0  0  0  0  0  0
    3.3923   -0.2985    0.0000 O   0  0  0  0  0  0  0  0  0  0  0  0
    4.3865   -2.6988    0.0000 N   0  0  0  0  0  0  0  0  0  0  0  0
    5.7723   -2.1248    0.0000 C   0  0  0  0  0  0  0  0  0  0  0  0
    6.1225   -0.6662    0.0000 N   0  0  0  0  0  0  0  0  0  0  0  0
    7.6179   -0.5485    0.0000 N   0  0  0  0  0  0  0  0  0  0  0  0
    8.1919   -1.9344    0.0000 N   0  0  0  0  0  0  0  0  0  0  0  0
    7.0513   -2.9085    0.0000 N   0  0  0  0  0  0  0  0  0  0  0  0
    7.1690   -4.4039    0.0000 N   0  0  0  0  0  0  0  0  0  0  0  0
    5.9328   -5.2535    0.0000 C   0  0  0  0  0  0  0  0  0  0  0  0
    6.0505   -6.7489    0.0000 N   0  0  0  0  0  0  0  0  0  0  0  0
    7.4044   -7.3947    0.0000 N   0  0  0  0  0  0  0  0  0  0  0  0
    8.6405   -6.5451    0.0000 N   0  0  0  0  0  0  0  0  0  0  0  0
    8.5229   -5.0497    0.0000 N   0  0  0  0  0  0  0  0  0  0  0  0
    9.7590   -4.2001    0.0000 N   0  0  0  0  0  0  0  0  0  0  0  0
    9.7983   -2.7006    0.0000 C   0  0  0  0  0  0  0  0  0  0  0  0
   11.2365   -2.2746    0.0000 C   0  0  0  0  0  0  0  0  0  0  0  0
   12.0861   -3.5108    0.0000 N   0  0  0  0  0  0  0  0  0  0  0  0
   13.5856   -3.5500    0.0000 C   0  0  0  0  0  0  0  0  0  0  0  0
   14.3694   -2.2711    0.0000 O   0  0  0  0  0  0  0  0  0  0  0  0
   14.3014   -4.8682    0.0000 N   0  0  0  0  0  0  0  0  0  0  0  0
   15.8009   -4.9075    0.0000 C   0  0  0  0  0  0  0  0  0  0  0  0
   16.5166   -6.2257    0.0000 N   0  0  0  0  0  0  0  0  0  0  0  0
   18.0161   -6.2650    0.0000 N   0  0  0  0  0  0  0  0  0  0  0  0
   18.7998   -4.9860    0.0000 N   0  0  0  0  0  0  0  0  0  0  0  0
   18.0841   -3.6678    0.0000 N   0  0  0  0  0  0  0  0  0  0  0  0
   16.5846   -3.6285    0.0000 N   0  0  0  0  0  0  0  0  0  0  0  0
   11.1730   -4.7008    0.0000 C   0  0  0  0  0  0  0  0  0  0  0  0
   11.5990   -6.1390    0.0000 O   0  0  0  0  0  0  0  0  0  0  0  0
    0.7500   -1.2990    0.0000 C   0  0  0  0  0  0  0  0  0  0  0  0
    1.5000    0.0000    0.0000 C   0  0  0  0  0  0  0  0  0  0  0  0
    0.7500    1.2990    0.0000 C   0  0  0  0  0  0  0  0  0  0  0  0
   -0.7500    1.2990    0.0000 C   0  0  0  0  0  0  0  0  0  0  0  0
   -1.5000    0.0000    0.0000 C   0  0  0  0  0  0  0  0  0  0  0  0
   -0.7500   -1.2990    0.0000 C   0  0  0  0  0  0  0  0  0  0  0  0
  1  2  1  0
  2  3  1  0
  3  4  2  0
  4  5  1  0
  5  6  1  0
  6  7  1  0
  7  8  1  0
  8  9  2  0
  8 10  1  0
 10 11  1  0
 11 12  2  0
 12 13  1  0
 13 14  2  0
 14 15  1  0
 15 16  1  0
 16 17  1  0
 17 18  2  0
 18 19  1  0
 19 20  2  0
 20 21  1  0
 21 22  1  0
 22 23  1  0
 23 24  1  0
 24 25  1  0
 25 26  1  0
 26 27  2  0
 26 28  1  0
 28 29  1  0
 29 30  2  0
 30 31  1  0
 31 32  2  0
 32 33  1  0
 33 34  2  0
 25 35  1  0
 35 36  2  0
  7 37  1  0
 37 38  2  0
 38 39  1  0
 39 40  2  0
 40 41  1  0
 41 42  2  0
 42  2  1  0
 15 11  1  0
 21 16  1  0
 35 22  1  0
 42 37  1  0
 34 29  1  0
M  END
>  <Title>  (1105) 
idABOOgen14

$$$$

     RDKit          2D

 28 31  0  0  0  0  0  0  0  0999 V2000
   -3.1965   -1.7857    0.0000 C   0  0  0  0  0  0  0  0  0  0  0  0
   -1.8107   -2.3597    0.0000 C   0  0  0  0  0  0  0  0  0  0  0  0
   -1.8107   -3.8597    0.0000 C   0  0  0  0  0  0  0  0  0  0  0  0
   -0.7500   -4.9204    0.0000 C   0  0  0  0  0  0  0  0  0  0  0  0
    0.7500   -4.9204    0.0000 C   0  0  0  0  0  0  0  0  0  0  0  0
    1.8107   -3.8597    0.0000 C   0  0  0  0  0  0  0  0  0  0  0  0
    1.8107   -2.3597    0.0000 C   0  0  0  0  0  0  0  0  0  0  0  0
    3.1965   -1.7857    0.0000 C   0  0  0  0  0  0  0  0  0  0  0  0
    3.3923   -0.2985    0.0000 O   0  0  0  0  0  0  0  0  0  0  0  0
    4.3865   -2.6988    0.0000 N   0  0  0  0  0  0  0  0  0  0  0  0
    5.7723   -2.1248    0.0000 C   0  0  0  0  0  0  0  0  0  0  0  0
    6.1225   -0.6662    0.0000 N   0  0  0  0  0  0  0  0  0  0  0  0
    7.6179   -0.5485    0.0000 N   0  0  0  0  0  0  0  0  0  0  0  0
    8.1919   -1.9344    0.0000 N   0  0  0  0  0  0  0  0  0  0  0  0
    7.0513   -2.9085    0.0000 N   0  0  0  0  0  0  0  0  0  0  0  0
    7.1690   -4.4039    0.0000 C   0  0  0  0  0  0  0  0  0  0  0  0
    5.9328   -5.2535    0.0000 C   0  0  0  0  0  0  0  0  0  0  0  0
    6.0505   -6.7489    0.0000 C   0  0  0  0  0  0  0  0  0  0  0  0
    7.4044   -7.3947    0.0000 C   0  0  0  0  0  0  0  0  0  0  0  0
    7.5220   -8.8900    0.0000 O   0  0  0  0  0  0  0  0  0  0  0  0
    8.6405   -6.5451    0.0000 C   0  0  0  0  0  0  0  0  0  0  0  0
    8.5229   -5.0497    0.0000 C   0  0  0  0  0  0  0  0  0  0  0  0
    0.7500   -1.2990    0.0000 C   0  0  0  0  0  0  0  0  0  0  0  0
    1.5000    0.0000    0.0000 C   0  0  0  0  0  0  0  0  0  0  0  0
    0.7500    1.2990    0.0000 C   0  0  0  0  0  0  0  0  0  0  0  0
   -0.7500    1.2990    0.0000 C   0  0  0  0  0  0  0  0  0  0  0  0
   -1.5000    0.0000    0.0000 C   0  0  0  0  0  0  0  0  0  0  0  0
   -0.7500   -1.2990    0.0000 C   0  0  0  0  0  0  0  0  0  0  0  0
  1  2  1  0
  2  3  1  0
  3  4  1  0
  4  5  1  0
  5  6  1  0
  6  7  1  0
  7  8  1  0
  8  9  2  0
  8 10  1  0
 10 11  1  0
 11 12  2  0
 12 13  1  0
 13 14  2  0
 14 15  1  0
 15 16  1  0
 16 17  2  0
 17 18  1  0
 18 19  2  0
 19 20  1  0
 19 21  1  0
 21 22  2  0
  7 23  1  0
 23 24  2  0
 24 25  1  0
 25 26  2  0
 26 27  1  0
 27 28  2  0
 28  2  1  0
 15 11  1  0
 22 16  1  0
 28 23  1  0
M  END
>  <Title>  (1106) 
idABOPgen14

$$$$

     RDKit          2D

 30 33  0  0  0  0  0  0  0  0999 V2000
   -3.1965   -1.7857    0.0000 C   0  0  0  0  0  0  0  0  0  0  0  0
   -1.8107   -2.3597    0.0000 C   0  0  0  0  0  0  0  0  0  0  0  0
   -1.8107   -3.8597    0.0000 C   0  0  0  0  0  0  0  0  0  0  0  0
   -0.7500   -4.9204    0.0000 C   0  0  0  0  0  0  0  0  0  0  0  0
    0.7500   -4.9204    0.0000 C   0  0  0  0  0  0  0  0  0  0  0  0
    1.8107   -3.8597    0.0000 C   0  0  0  0  0  0  0  0  0  0  0  0
    1.8107   -2.3597    0.0000 C   0  0  0  0  0  0  0  0  0  0  0  0
    3.1965   -1.7857    0.0000 C   0  0  0  0  0  0  0  0  0  0  0  0
    3.3923   -0.2985    0.0000 O   0  0  0  0  0  0  0  0  0  0  0  0
    4.3865   -2.6988    0.0000 N   0  0  0  0  0  0  0  0  0  0  0  0
    5.7723   -2.1248    0.0000 C   0  0  0  0  0  0  0  0  0  0  0  0
    6.1225   -0.6662    0.0000 N   0  0  0  0  0  0  0  0  0  0  0  0
    7.6179   -0.5485    0.0000 N   0  0  0  0  0  0  0  0  0  0  0  0
    8.1919   -1.9344    0.0000 N   0  0  0  0  0  0  0  0  0  0  0  0
    7.0513   -2.9085    0.0000 N   0  0  0  0  0  0  0  0  0  0  0  0
    7.1690   -4.4039    0.0000 C   0  0  0  0  0  0  0  0  0  0  0  0
    5.9328   -5.2535    0.0000 C   0  0  0  0  0  0  0  0  0  0  0  0
    6.0505   -6.7489    0.0000 C   0  0  0  0  0  0  0  0  0  0  0  0
    7.4044   -7.3947    0.0000 C   0  0  0  0  0  0  0  0  0  0  0  0
    7.5220   -8.8900    0.0000 O   0  0  0  0  0  0  0  0  0  0  0  0
    8.6405   -6.5451    0.0000 C   0  0  0  0  0  0  0  0  0  0  0  0
    8.5229   -5.0497    0.0000 C   0  0  0  0  0  0  0  0  0  0  0  0
    0.7500   -1.2990    0.0000 C   0  0  0  0  0  0  0  0  0  0  0  0
    1.5000    0.0000    0.0000 C   0  0  0  0  0  0  0  0  0  0  0  0
    0.7500    1.2990    0.0000 C   0  0  0  0  0  0  0  0  0  0  0  0
   -0.7500    1.2990    0.0000 C   0  0  0  0  0  0  0  0  0  0  0  0
   -1.5000    2.5981    0.0000 C   0  0  0  0  0  0  0  0  0  0  0  0
   -2.2500    3.8971    0.0000 N   0  0  0  0  0  0  0  0  0  0  0  0
   -1.5000    0.0000    0.0000 C   0  0  0  0  0  0  0  0  0  0  0  0
   -0.7500   -1.2990    0.0000 C   0  0  0  0  0  0  0  0  0  0  0  0
  1  2  1  0
  2  3  1  0
  3  4  2  0
  4  5  1  0
  5  6  1  0
  6  7  1  0
  7  8  1  0
  8  9  2  0
  8 10  1  0
 10 11  1  0
 11 12  2  0
 12 13  1  0
 13 14  2  0
 14 15  1  0
 15 16  1  0
 16 17  2  0
 17 18  1  0
 18 19  2  0
 19 20  1  0
 19 21  1  0
 21 22  2  0
  7 23  1  0
 23 24  2  0
 24 25  1  0
 25 26  2  0
 26 27  1  0
 27 28  3  0
 26 29  1  0
 29 30  2  0
 30  2  1  0
 15 11  1  0
 22 16  1  0
 30 23  1  0
M  END
>  <Title>  (1107) 
idABOQgen14

$$$$

     RDKit          2D

 34 38  0  0  0  0  0  0  0  0999 V2000
   -3.0000   -2.5981    0.0000 C   0  0  0  0  0  0  0  0  0  0  0  0
   -1.5000   -2.5981    0.0000 C   0  0  0  0  0  0  0  0  0  0  0  0
   -0.7500   -3.8971    0.0000 C   0  0  0  0  0  0  0  0  0  0  0  0
    0.7500   -3.8971    0.0000 C   0  0  0  0  0  0  0  0  0  0  0  0
    1.5000   -2.5981    0.0000 C   0  0  0  0  0  0  0  0  0  0  0  0
    3.0000   -2.5981    0.0000 C   0  0  0  0  0  0  0  0  0  0  0  0
    3.7500   -1.2990    0.0000 O   0  0  0  0  0  0  0  0  0  0  0  0
    3.7500   -3.8971    0.0000 N   0  0  0  0  0  0  0  0  0  0  0  0
    5.2500   -3.8971    0.0000 C   0  0  0  0  0  0  0  0  0  0  0  0
    6.1317   -2.6836    0.0000 N   0  0  0  0  0  0  0  0  0  0  0  0
    7.5583   -3.1471    0.0000 N   0  0  0  0  0  0  0  0  0  0  0  0
    7.5583   -4.6471    0.0000 N   0  0  0  0  0  0  0  0  0  0  0  0
    6.1317   -5.1106    0.0000 N   0  0  0  0  0  0  0  0  0  0  0  0
    5.6682   -6.5372    0.0000 N   0  0  0  0  0  0  0  0  0  0  0  0
    6.5498   -7.7508    0.0000 C   0  0  0  0  0  0  0  0  0  0  0  0
    5.6682   -8.9643    0.0000 C   0  0  0  0  0  0  0  0  0  0  0  0
    4.2416   -8.5008    0.0000 C   0  0  0  0  0  0  0  0  0  0  0  0
    3.0280   -9.3824    0.0000 C   0  0  0  0  0  0  0  0  0  0  0  0
    3.1848  -10.8742    0.0000 O   0  0  0  0  0  0  0  0  0  0  0  0
    1.6577   -8.7723    0.0000 N   0  0  0  0  0  0  0  0  0  0  0  0
    0.4442   -9.6540    0.0000 C   0  0  0  0  0  0  0  0  0  0  0  0
   -0.9261   -9.0439    0.0000 N   0  0  0  0  0  0  0  0  0  0  0  0
   -2.1396   -9.9256    0.0000 N   0  0  0  0  0  0  0  0  0  0  0  0
   -1.9829  -11.4174    0.0000 N   0  0  0  0  0  0  0  0  0  0  0  0
   -0.6125  -12.0275    0.0000 N   0  0  0  0  0  0  0  0  0  0  0  0
    0.6010  -11.1458    0.0000 N   0  0  0  0  0  0  0  0  0  0  0  0
    4.2416   -7.0008    0.0000 C   0  0  0  0  0  0  0  0  0  0  0  0
    3.0280   -6.1191    0.0000 O   0  0  0  0  0  0  0  0  0  0  0  0
    0.7500   -1.2990    0.0000 C   0  0  0  0  0  0  0  0  0  0  0  0
    1.5000    0.0000    0.0000 C   0  0  0  0  0  0  0  0  0  0  0  0
    0.7500    1.2990    0.0000 C   0  0  0  0  0  0  0  0  0  0  0  0
   -0.7500    1.2990    0.0000 C   0  0  0  0  0  0  0  0  0  0  0  0
   -1.5000    0.0000    0.0000 C   0  0  0  0  0  0  0  0  0  0  0  0
   -0.7500   -1.2990    0.0000 C   0  0  0  0  0  0  0  0  0  0  0  0
  1  2  1  0
  2  3  1  0
  3  4  2  0
  4  5  1  0
  5  6  1  0
  6  7  2  0
  6  8  1  0
  8  9  1  0
  9 10  2  0
 10 11  1  0
 11 12  2  0
 12 13  1  0
 13 14  1  0
 14 15  1  0
 15 16  1  0
 16 17  2  0
 17 18  1  0
 18 19  2  0
 18 20  1  0
 20 21  1  0
 21 22  2  0
 22 23  1  0
 23 24  2  0
 24 25  1  0
 25 26  2  0
 17 27  1  0
 27 28  2  0
  5 29  1  0
 29 30  2  0
 30 31  1  0
 31 32  2  0
 32 33  1  0
 33 34  2  0
 34  2  1  0
 13  9  1  0
 27 14  1  0
 34 29  1  0
 26 21  1  0
M  END
>  <Title>  (1108) 
idABORgen14

$$$$

     RDKit          2D

 14 15  0  0  0  0  0  0  0  0999 V2000
    3.0000    0.0000    0.0000 C   0  0  0  0  0  0  0  0  0  0  0  0
    1.5000    0.0000    0.0000 C   0  0  0  0  0  0  0  0  0  0  0  0
    0.7500   -1.2990    0.0000 C   0  0  0  0  0  0  0  0  0  0  0  0
   -0.7500   -1.2990    0.0000 C   0  0  0  0  0  0  0  0  0  0  0  0
   -1.5000   -2.5981    0.0000 O   0  0  0  0  0  0  0  0  0  0  0  0
   -1.5000    0.0000    0.0000 N   0  0  0  0  0  0  0  0  0  0  0  0
   -0.7500    1.2990    0.0000 C   0  0  0  0  0  0  0  0  0  0  0  0
    0.7500    1.2990    0.0000 N   0  0  0  0  0  0  0  0  0  0  0  0
    1.5000    2.5981    0.0000 C   0  0  0  0  0  0  0  0  0  0  0  0
    3.0000    2.5981    0.0000 C   0  0  0  0  0  0  0  0  0  0  0  0
    3.7500    3.8971    0.0000 C   0  0  0  0  0  0  0  0  0  0  0  0
    3.0000    5.1962    0.0000 C   0  0  0  0  0  0  0  0  0  0  0  0
    1.5000    5.1962    0.0000 C   0  0  0  0  0  0  0  0  0  0  0  0
    0.7500    3.8971    0.0000 C   0  0  0  0  0  0  0  0  0  0  0  0
  1  2  1  0
  2  3  2  0
  3  4  1  0
  4  5  1  0
  4  6  1  0
  6  7  1  0
  7  8  1  0
  8  9  1  0
  9 10  1  0
 10 11  2  0
 11 12  1  0
 12 13  1  0
 13 14  1  0
  8  2  1  0
 14  9  1  0
M  END
>  <Title>  (1109) 
idABOSgen14

$$$$

     RDKit          2D

  7  7  0  0  0  0  0  0  0  0999 V2000
    3.0000    0.0000    0.0000 C   0  0  0  0  0  0  0  0  0  0  0  0
    1.5000    0.0000    0.0000 C   0  0  0  0  0  0  0  0  0  0  0  0
    0.7500   -1.2990    0.0000 C   0  0  0  0  0  0  0  0  0  0  0  0
   -0.7500   -1.2990    0.0000 C   0  0  0  0  0  0  0  0  0  0  0  0
   -1.5000    0.0000    0.0000 C   0  0  0  0  0  0  0  0  0  0  0  0
   -0.7500    1.2990    0.0000 C   0  0  0  0  0  0  0  0  0  0  0  0
    0.7500    1.2990    0.0000 C   0  0  0  0  0  0  0  0  0  0  0  0
  1  2  1  0
  2  3  1  0
  3  4  2  0
  4  5  1  0
  5  6  1  0
  6  7  2  0
  7  2  1  0
M  END
>  <Title>  (1110) 
idABOTgen14

$$$$

     RDKit          2D

 38 42  0  0  0  0  0  0  0  0999 V2000
   -3.1771   -1.2990    0.0000 C   0  0  0  0  0  0  0  0  0  0  0  0
   -1.9635   -2.1807    0.0000 C   0  0  0  0  0  0  0  0  0  0  0  0
   -2.4271   -3.6073    0.0000 C   0  0  0  0  0  0  0  0  0  0  0  0
   -1.9635   -5.0339    0.0000 C   0  0  0  0  0  0  0  0  0  0  0  0
   -0.7500   -5.9156    0.0000 C   0  0  0  0  0  0  0  0  0  0  0  0
    0.7500   -5.9156    0.0000 C   0  0  0  0  0  0  0  0  0  0  0  0
    1.9635   -5.0339    0.0000 C   0  0  0  0  0  0  0  0  0  0  0  0
    2.4271   -3.6073    0.0000 C   0  0  0  0  0  0  0  0  0  0  0  0
    1.9635   -2.1807    0.0000 C   0  0  0  0  0  0  0  0  0  0  0  0
    3.1771   -1.2990    0.0000 C   0  0  0  0  0  0  0  0  0  0  0  0
    3.0203    0.1927    0.0000 O   0  0  0  0  0  0  0  0  0  0  0  0
    4.5474   -1.9091    0.0000 N   0  0  0  0  0  0  0  0  0  0  0  0
    5.7609   -1.0275    0.0000 C   0  0  0  0  0  0  0  0  0  0  0  0
    5.7609    0.4725    0.0000 N   0  0  0  0  0  0  0  0  0  0  0  0
    7.1875    0.9361    0.0000 N   0  0  0  0  0  0  0  0  0  0  0  0
    8.0692   -0.2775    0.0000 N   0  0  0  0  0  0  0  0  0  0  0  0
    7.1875   -1.4910    0.0000 N   0  0  0  0  0  0  0  0  0  0  0  0
    7.6510   -2.9176    0.0000 N   0  0  0  0  0  0  0  0  0  0  0  0
    9.0776   -3.3811    0.0000 C   0  0  0  0  0  0  0  0  0  0  0  0
    9.0776   -4.8811    0.0000 C   0  0  0  0  0  0  0  0  0  0  0  0
    7.6510   -5.3446    0.0000 N   0  0  0  0  0  0  0  0  0  0  0  0
    7.1875   -6.7712    0.0000 C   0  0  0  0  0  0  0  0  0  0  0  0
    8.1912   -7.8859    0.0000 O   0  0  0  0  0  0  0  0  0  0  0  0
    5.7203   -7.0831    0.0000 N   0  0  0  0  0  0  0  0  0  0  0  0
    5.2567   -8.5097    0.0000 C   0  0  0  0  0  0  0  0  0  0  0  0
    3.7895   -8.8215    0.0000 N   0  0  0  0  0  0  0  0  0  0  0  0
    3.3260  -10.2481    0.0000 N   0  0  0  0  0  0  0  0  0  0  0  0
    4.3297  -11.3628    0.0000 N   0  0  0  0  0  0  0  0  0  0  0  0
    5.7969  -11.0510    0.0000 N   0  0  0  0  0  0  0  0  0  0  0  0
    6.2604   -9.6244    0.0000 N   0  0  0  0  0  0  0  0  0  0  0  0
    6.7693   -4.1311    0.0000 C   0  0  0  0  0  0  0  0  0  0  0  0
    5.2693   -4.1311    0.0000 O   0  0  0  0  0  0  0  0  0  0  0  0
    0.7500   -1.2990    0.0000 C   0  0  0  0  0  0  0  0  0  0  0  0
    1.5000    0.0000    0.0000 C   0  0  0  0  0  0  0  0  0  0  0  0
    0.7500    1.2990    0.0000 C   0  0  0  0  0  0  0  0  0  0  0  0
   -0.7500    1.2990    0.0000 C   0  0  0  0  0  0  0  0  0  0  0  0
   -1.5000    0.0000    0.0000 C   0  0  0  0  0  0  0  0  0  0  0  0
   -0.7500   -1.2990    0.0000 C   0  0  0  0  0  0  0  0  0  0  0  0
  1  2  1  0
  2  3  1  0
  3  4  1  0
  4  5  1  0
  5  6  1  0
  6  7  1  0
  7  8  1  0
  8  9  1  0
  9 10  1  0
 10 11  2  0
 10 12  1  0
 12 13  1  0
 13 14  2  0
 14 15  1  0
 15 16  2  0
 16 17  1  0
 17 18  1  0
 18 19  1  0
 19 20  1  0
 20 21  1  0
 21 22  1  0
 22 23  2  0
 22 24  1  0
 24 25  1  0
 25 26  2  0
 26 27  1  0
 27 28  2  0
 28 29  1  0
 29 30  2  0
 21 31  1  0
 31 32  2  0
  9 33  1  0
 33 34  2  0
 34 35  1  0
 35 36  2  0
 36 37  1  0
 37 38  2  0
 38  2  1  0
 17 13  1  0
 31 18  1  0
 38 33  1  0
 30 25  1  0
M  END
>  <Title>  (1111) 
idABOUgen14

$$$$

     RDKit          2D

  6  5  0  0  0  0  0  0  0  0999 V2000
    0.0000    0.0000    0.0000 C   0  0  0  0  0  0  0  0  0  0  0  0
    1.2990    0.7500    0.0000 C   0  0  0  0  0  0  0  0  0  0  0  0
    2.5981   -0.0000    0.0000 C   0  0  0  0  0  0  0  0  0  0  0  0
    3.8971    0.7500    0.0000 C   0  0  0  0  0  0  0  0  0  0  0  0
    5.1962   -0.0000    0.0000 C   0  0  0  0  0  0  0  0  0  0  0  0
    3.8971    2.2500    0.0000 C   0  0  0  0  0  0  0  0  0  0  0  0
  1  2  1  0
  2  3  1  0
  3  4  1  0
  4  5  1  0
  4  6  1  0
M  END
>  <Title>  (1112) 
idABOVgen14

$$$$

     RDKit          2D

 15 14  0  0  0  0  0  0  0  0999 V2000
    0.0000    0.0000    0.0000 C   0  0  0  0  0  0  0  0  0  0  0  0
    1.2990    0.7500    0.0000 C   0  0  0  0  0  0  0  0  0  0  0  0
    2.5981   -0.0000    0.0000 C   0  0  0  0  0  0  0  0  0  0  0  0
    3.8971    0.7500    0.0000 C   0  0  0  0  0  0  0  0  0  0  0  0
    3.8971    2.2500    0.0000 O   0  0  0  0  0  0  0  0  0  0  0  0
    5.1962   -0.0000    0.0000 N   0  0  0  0  0  0  0  0  0  0  0  0
    6.4952    0.7500    0.0000 C   0  0  0  0  0  0  0  0  0  0  0  0
    7.7942   -0.0000    0.0000 C   0  0  0  0  0  0  0  0  0  0  0  0
    9.0933    0.7500    0.0000 C   0  0  0  0  0  0  0  0  0  0  0  0
   10.3923   -0.0000    0.0000 C   0  0  0  0  0  0  0  0  0  0  0  0
   11.6913    0.7500    0.0000 C   0  0  0  0  0  0  0  0  0  0  0  0
   12.9904   -0.0000    0.0000 C   0  0  0  0  0  0  0  0  0  0  0  0
   14.2894    0.7500    0.0000 C   0  0  0  0  0  0  0  0  0  0  0  0
   12.9904   -1.5000    0.0000 O   0  0  0  0  0  0  0  0  0  0  0  0
   14.2894   -2.2500    0.0000 C   0  0  0  0  0  0  0  0  0  0  0  0
  1  2  1  0
  2  3  1  0
  3  4  1  0
  4  5  2  0
  4  6  1  0
  6  7  1  0
  7  8  1  0
  8  9  2  3
  9 10  1  0
 10 11  1  0
 11 12  1  0
 12 13  1  0
 12 14  1  0
 14 15  1  0
M  END
>  <Title>  (1113) 
idABOWgen14

$$$$

     RDKit          2D

 11 10  0  0  0  0  0  0  0  0999 V2000
    0.0000    0.0000    0.0000 C   0  0  0  0  0  0  0  0  0  0  0  0
    1.2990    0.7500    0.0000 N   0  0  0  0  0  0  0  0  0  0  0  0
    2.5981   -0.0000    0.0000 C   0  0  0  0  0  0  0  0  0  0  0  0
    3.8971    0.7500    0.0000 C   0  0  0  0  0  0  0  0  0  0  0  0
    2.5981   -1.5000    0.0000 C   0  0  0  0  0  0  0  0  0  0  0  0
    3.8971   -2.2500    0.0000 C   0  0  0  0  0  0  0  0  0  0  0  0
    3.8971   -3.7500    0.0000 C   0  0  0  0  0  0  0  0  0  0  0  0
    5.1962   -1.5000    0.0000 N   0  0  0  0  0  0  0  0  0  0  0  0
    6.4952   -2.2500    0.0000 C   0  0  0  0  0  0  0  0  0  0  0  0
    7.7942   -1.5000    0.0000 C   0  0  0  0  0  0  0  0  0  0  0  0
    6.4952   -3.7500    0.0000 O   0  0  0  0  0  0  0  0  0  0  0  0
  1  2  1  0
  2  3  1  0
  3  4  1  0
  3  5  1  0
  5  6  1  0
  6  7  1  0
  6  8  1  0
  8  9  1  0
  9 10  1  0
  9 11  2  0
M  END
>  <Title>  (1114) 
idABOXgen14

$$$$

     RDKit          2D

 22 23  0  0  0  0  0  0  0  0999 V2000
   -9.6011    5.1213    0.0000 C   0  0  0  0  0  0  0  0  0  0  0  0
   -8.5809    6.2209    0.0000 C   0  0  0  0  0  0  0  0  0  0  0  0
   -7.1185    5.8871    0.0000 C   0  0  0  0  0  0  0  0  0  0  0  0
   -6.0982    6.9867    0.0000 C   0  0  0  0  0  0  0  0  0  0  0  0
   -6.5404    8.4200    0.0000 C   0  0  0  0  0  0  0  0  0  0  0  0
   -4.6358    6.6529    0.0000 N   0  0  0  0  0  0  0  0  0  0  0  0
   -4.1937    5.2195    0.0000 C   0  0  0  0  0  0  0  0  0  0  0  0
   -5.2140    4.1199    0.0000 O   0  0  0  0  0  0  0  0  0  0  0  0
   -2.7313    4.8857    0.0000 N   0  0  0  0  0  0  0  0  0  0  0  0
   -2.2892    3.4524    0.0000 C   0  0  0  0  0  0  0  0  0  0  0  0
   -0.8268    3.1186    0.0000 C   0  0  0  0  0  0  0  0  0  0  0  0
    0.1935    4.2182    0.0000 N   0  0  0  0  0  0  0  0  0  0  0  0
    1.6559    3.8844    0.0000 N   0  0  0  0  0  0  0  0  0  0  0  0
    2.0980    2.4510    0.0000 N   0  0  0  0  0  0  0  0  0  0  0  0
    1.0777    1.3515    0.0000 N   0  0  0  0  0  0  0  0  0  0  0  0
    1.7286    0.0000    0.0000 C   0  0  0  0  0  0  0  0  0  0  0  0
    1.0777   -1.3515    0.0000 C   0  0  0  0  0  0  0  0  0  0  0  0
   -0.3846   -1.6852    0.0000 C   0  0  0  0  0  0  0  0  0  0  0  0
   -0.7184   -3.1476    0.0000 O   0  0  0  0  0  0  0  0  0  0  0  0
   -1.5574   -0.7500    0.0000 C   0  0  0  0  0  0  0  0  0  0  0  0
   -1.5574    0.7500    0.0000 C   0  0  0  0  0  0  0  0  0  0  0  0
   -0.3846    1.6852    0.0000 C   0  0  0  0  0  0  0  0  0  0  0  0
  1  2  1  0
  2  3  1  0
  3  4  1  0
  4  5  1  0
  4  6  1  0
  6  7  1  0
  7  8  2  0
  7  9  1  0
  9 10  1  0
 10 11  1  0
 11 12  2  0
 12 13  1  0
 13 14  2  0
 14 15  1  0
 15 16  1  0
 16 17  2  0
 17 18  1  0
 18 19  1  0
 18 20  2  0
 20 21  1  0
 21 22  2  0
 22 11  1  0
 22 15  1  0
M  END
>  <Title>  (1115) 
idABOYgen14

$$$$

     RDKit          2D

  4  3  0  0  0  0  0  0  0  0999 V2000
    0.0000    0.0000    0.0000 C   0  0  0  0  0  0  0  0  0  0  0  0
    1.2990    0.7500    0.0000 C   0  0  0  0  0  0  0  0  0  0  0  0
    2.5981   -0.0000    0.0000 C   0  0  0  0  0  0  0  0  0  0  0  0
    3.8971    0.7500    0.0000 C   0  0  0  0  0  0  0  0  0  0  0  0
  1  2  1  0
  2  3  1  0
  3  4  1  0
M  END
>  <Title>  (1116) 
idABOZgen14

$$$$

     RDKit          2D

 35 39  0  0  0  0  0  0  0  0999 V2000
   -3.0000   -2.5981    0.0000 C   0  0  0  0  0  0  0  0  0  0  0  0
   -1.5000   -2.5981    0.0000 C   0  0  0  0  0  0  0  0  0  0  0  0
   -0.7500   -3.8971    0.0000 C   0  0  0  0  0  0  0  0  0  0  0  0
    0.7500   -3.8971    0.0000 C   0  0  0  0  0  0  0  0  0  0  0  0
    1.5000   -2.5981    0.0000 C   0  0  0  0  0  0  0  0  0  0  0  0
    3.0000   -2.5981    0.0000 C   0  0  0  0  0  0  0  0  0  0  0  0
    3.7500   -1.2990    0.0000 O   0  0  0  0  0  0  0  0  0  0  0  0
    3.7500   -3.8971    0.0000 N   0  0  0  0  0  0  0  0  0  0  0  0
    5.2500   -3.8971    0.0000 C   0  0  0  0  0  0  0  0  0  0  0  0
    6.1317   -2.6836    0.0000 N   0  0  0  0  0  0  0  0  0  0  0  0
    7.5583   -3.1471    0.0000 N   0  0  0  0  0  0  0  0  0  0  0  0
    7.5583   -4.6471    0.0000 N   0  0  0  0  0  0  0  0  0  0  0  0
    6.1317   -5.1106    0.0000 N   0  0  0  0  0  0  0  0  0  0  0  0
    5.6682   -6.5372    0.0000 C   0  0  0  0  0  0  0  0  0  0  0  0
    6.5498   -7.7508    0.0000 C   0  0  0  0  0  0  0  0  0  0  0  0
    5.6682   -8.9643    0.0000 C   0  0  0  0  0  0  0  0  0  0  0  0
    4.2416   -8.5008    0.0000 C   0  0  0  0  0  0  0  0  0  0  0  0
    3.0280   -9.3824    0.0000 C   0  0  0  0  0  0  0  0  0  0  0  0
    3.1848  -10.8742    0.0000 O   0  0  0  0  0  0  0  0  0  0  0  0
    1.6577   -8.7723    0.0000 N   0  0  0  0  0  0  0  0  0  0  0  0
    0.4442   -9.6540    0.0000 C   0  0  0  0  0  0  0  0  0  0  0  0
   -0.9261   -9.0439    0.0000 N   0  0  0  0  0  0  0  0  0  0  0  0
   -2.1396   -9.9256    0.0000 N   0  0  0  0  0  0  0  0  0  0  0  0
   -1.9829  -11.4174    0.0000 N   0  0  0  0  0  0  0  0  0  0  0  0
   -0.6125  -12.0275    0.0000 N   0  0  0  0  0  0  0  0  0  0  0  0
    0.6010  -11.1458    0.0000 N   0  0  0  0  0  0  0  0  0  0  0  0
    4.2416   -7.0008    0.0000 C   0  0  0  0  0  0  0  0  0  0  0  0
    3.0280   -6.1191    0.0000 O   0  0  0  0  0  0  0  0  0  0  0  0
    0.7500   -1.2990    0.0000 C   0  0  0  0  0  0  0  0  0  0  0  0
    1.5000    0.0000    0.0000 C   0  0  0  0  0  0  0  0  0  0  0  0
    0.7500    1.2990    0.0000 C   0  0  0  0  0  0  0  0  0  0  0  0
   -0.7500    1.2990    0.0000 C   0  0  0  0  0  0  0  0  0  0  0  0
   -1.5000    2.5981    0.0000 O   0  0  0  0  0  0  0  0  0  0  0  0
   -1.5000    0.0000    0.0000 C   0  0  0  0  0  0  0  0  0  0  0  0
   -0.7500   -1.2990    0.0000 C   0  0  0  0  0  0  0  0  0  0  0  0
  1  2  1  0
  2  3  1  0
  3  4  2  0
  4  5  1  0
  5  6  1  0
  6  7  2  0
  6  8  1  0
  8  9  1  0
  9 10  2  0
 10 11  1  0
 11 12  2  0
 12 13  1  0
 13 14  1  0
 14 15  2  0
 15 16  1  0
 16 17  2  0
 17 18  1  0
 18 19  2  0
 18 20  1  0
 20 21  1  0
 21 22  2  0
 22 23  1  0
 23 24  2  0
 24 25  1  0
 25 26  2  0
 17 27  1  0
 27 28  2  0
  5 29  1  0
 29 30  2  0
 30 31  1  0
 31 32  2  0
 32 33  1  0
 32 34  1  0
 34 35  2  0
 35  2  1  0
 13  9  1  0
 27 14  1  0
 35 29  1  0
 26 21  1  0
M  END
>  <Title>  (1117) 
idABPAgen14

$$$$

     RDKit          2D

 41 46  0  0  0  0  0  0  0  0999 V2000
   -0.4109   -7.4962    0.0000 C   0  0  0  0  0  0  0  0  0  0  0  0
   -1.3240   -6.3062    0.0000 C   0  0  0  0  0  0  0  0  0  0  0  0
   -0.7500   -4.9204    0.0000 C   0  0  0  0  0  0  0  0  0  0  0  0
    0.7500   -4.9204    0.0000 C   0  0  0  0  0  0  0  0  0  0  0  0
    1.8107   -3.8597    0.0000 C   0  0  0  0  0  0  0  0  0  0  0  0
    1.8107   -2.3597    0.0000 C   0  0  0  0  0  0  0  0  0  0  0  0
    3.1965   -1.7857    0.0000 C   0  0  0  0  0  0  0  0  0  0  0  0
    3.3923   -0.2985    0.0000 O   0  0  0  0  0  0  0  0  0  0  0  0
    4.3865   -2.6988    0.0000 N   0  0  0  0  0  0  0  0  0  0  0  0
    5.7723   -2.1248    0.0000 C   0  0  0  0  0  0  0  0  0  0  0  0
    6.1225   -0.6662    0.0000 N   0  0  0  0  0  0  0  0  0  0  0  0
    7.6179   -0.5485    0.0000 N   0  0  0  0  0  0  0  0  0  0  0  0
    8.1919   -1.9344    0.0000 N   0  0  0  0  0  0  0  0  0  0  0  0
    7.0513   -2.9085    0.0000 N   0  0  0  0  0  0  0  0  0  0  0  0
    7.1690   -4.4039    0.0000 N   0  0  0  0  0  0  0  0  0  0  0  0
    8.4479   -5.1877    0.0000 C   0  0  0  0  0  0  0  0  0  0  0  0
    8.0978   -6.6462    0.0000 C   0  0  0  0  0  0  0  0  0  0  0  0
    6.6024   -6.7639    0.0000 N   0  0  0  0  0  0  0  0  0  0  0  0
    5.8186   -8.0429    0.0000 C   0  0  0  0  0  0  0  0  0  0  0  0
    6.5344   -9.3611    0.0000 O   0  0  0  0  0  0  0  0  0  0  0  0
    4.3192   -8.0036    0.0000 N   0  0  0  0  0  0  0  0  0  0  0  0
    3.5354   -9.2826    0.0000 C   0  0  0  0  0  0  0  0  0  0  0  0
    2.0359   -9.2433    0.0000 N   0  0  0  0  0  0  0  0  0  0  0  0
    1.2522  -10.5223    0.0000 N   0  0  0  0  0  0  0  0  0  0  0  0
    1.9679  -11.8405    0.0000 N   0  0  0  0  0  0  0  0  0  0  0  0
    3.4674  -11.8797    0.0000 N   0  0  0  0  0  0  0  0  0  0  0  0
    4.2512  -10.6008    0.0000 N   0  0  0  0  0  0  0  0  0  0  0  0
    6.0284   -5.3781    0.0000 C   0  0  0  0  0  0  0  0  0  0  0  0
    4.5698   -5.0279    0.0000 O   0  0  0  0  0  0  0  0  0  0  0  0
    0.7500   -1.2990    0.0000 C   0  0  0  0  0  0  0  0  0  0  0  0
    1.5000    0.0000    0.0000 C   0  0  0  0  0  0  0  0  0  0  0  0
    0.7500    1.2990    0.0000 C   0  0  0  0  0  0  0  0  0  0  0  0
   -0.7500    1.2990    0.0000 C   0  0  0  0  0  0  0  0  0  0  0  0
   -1.5000    0.0000    0.0000 C   0  0  0  0  0  0  0  0  0  0  0  0
   -0.7500   -1.2990    0.0000 C   0  0  0  0  0  0  0  0  0  0  0  0
   -1.8107   -2.3597    0.0000 C   0  0  0  0  0  0  0  0  0  0  0  0
   -3.1097   -1.6097    0.0000 C   0  0  0  0  0  0  0  0  0  0  0  0
   -4.4087   -2.3597    0.0000 C   0  0  0  0  0  0  0  0  0  0  0  0
   -4.4087   -3.8597    0.0000 C   0  0  0  0  0  0  0  0  0  0  0  0
   -3.1097   -4.6097    0.0000 C   0  0  0  0  0  0  0  0  0  0  0  0
   -1.8107   -3.8597    0.0000 C   0  0  0  0  0  0  0  0  0  0  0  0
  1  2  1  0
  2  3  1  0
  3  4  2  0
  4  5  1  0
  5  6  2  0
  6  7  1  0
  7  8  2  0
  7  9  1  0
  9 10  1  0
 10 11  2  0
 11 12  1  0
 12 13  2  0
 13 14  1  0
 14 15  1  0
 15 16  1  0
 16 17  1  0
 17 18  1  0
 18 19  1  0
 19 20  2  0
 19 21  1  0
 21 22  1  0
 22 23  2  0
 23 24  1  0
 24 25  2  0
 25 26  1  0
 26 27  2  0
 18 28  1  0
 28 29  2  0
  6 30  1  0
 30 31  2  0
 31 32  1  0
 32 33  2  0
 33 34  1  0
 34 35  2  0
 35 36  1  0
 36 37  2  0
 37 38  1  0
 38 39  2  0
 39 40  1  0
 40 41  2  0
 41  3  1  0
 14 10  1  0
 28 15  1  0
 35 30  1  0
 41 36  1  0
 27 22  1  0
M  END
>  <Title>  (1118) 
idABPBgen14

$$$$

     RDKit          2D

  7  6  0  0  0  0  0  0  0  0999 V2000
    0.0000    0.0000    0.0000 C   0  0  0  0  0  0  0  0  0  0  0  0
    1.2990    0.7500    0.0000 C   0  0  0  0  0  0  0  0  0  0  0  0
    2.5981   -0.0000    0.0000 C   0  0  0  0  0  0  0  0  0  0  0  0
    3.8971    0.7500    0.0000 C   0  0  0  0  0  0  0  0  0  0  0  0
    5.1962   -0.0000    0.0000 C   0  0  0  0  0  0  0  0  0  0  0  0
    3.8971    2.2500    0.0000 C   0  0  0  0  0  0  0  0  0  0  0  0
    5.1962    3.0000    0.0000 O   0  0  0  0  0  0  0  0  0  0  0  0
  1  2  1  0
  2  3  1  0
  3  4  1  0
  4  5  1  0
  4  6  1  0
  6  7  1  0
M  END
>  <Title>  (1119) 
idABPCgen14

$$$$

     RDKit          2D

  9  9  0  0  0  0  0  0  0  0999 V2000
    6.5260   -1.2990    0.0000 N   0  0  0  0  0  0  0  0  0  0  0  0
    5.0260   -1.2990    0.0000 C   0  0  0  0  0  0  0  0  0  0  0  0
    3.5260   -1.2990    0.0000 C   0  0  0  0  0  0  0  0  0  0  0  0
    2.7760    0.0000    0.0000 C   0  0  0  0  0  0  0  0  0  0  0  0
    1.2760    0.0000    0.0000 C   0  0  0  0  0  0  0  0  0  0  0  0
    0.3943    1.2135    0.0000 C   0  0  0  0  0  0  0  0  0  0  0  0
   -1.0323    0.7500    0.0000 C   0  0  0  0  0  0  0  0  0  0  0  0
   -1.0323   -0.7500    0.0000 C   0  0  0  0  0  0  0  0  0  0  0  0
    0.3943   -1.2135    0.0000 C   0  0  0  0  0  0  0  0  0  0  0  0
  1  2  3  0
  2  3  1  0
  3  4  1  0
  4  5  1  0
  5  6  2  0
  6  7  1  0
  7  8  1  0
  8  9  2  0
  9  5  1  0
M  END
>  <Title>  (1120) 
idABPDgen14

$$$$

     RDKit          2D

  9  9  0  0  0  0  0  0  0  0999 V2000
    5.2500   -1.2990    0.0000 C   0  0  0  0  0  0  0  0  0  0  0  0
    3.7500   -1.2990    0.0000 N   0  0  0  0  0  0  0  0  0  0  0  0
    3.0000    0.0000    0.0000 C   0  0  0  0  0  0  0  0  0  0  0  0
    1.5000    0.0000    0.0000 C   0  0  0  0  0  0  0  0  0  0  0  0
    0.7500   -1.2990    0.0000 C   0  0  0  0  0  0  0  0  0  0  0  0
   -0.7500   -1.2990    0.0000 C   0  0  0  0  0  0  0  0  0  0  0  0
   -1.5000    0.0000    0.0000 C   0  0  0  0  0  0  0  0  0  0  0  0
   -0.7500    1.2990    0.0000 N   0  0  0  0  0  0  0  0  0  0  0  0
    0.7500    1.2990    0.0000 C   0  0  0  0  0  0  0  0  0  0  0  0
  1  2  1  0
  2  3  1  0
  3  4  1  0
  4  5  2  0
  5  6  1  0
  6  7  2  0
  7  8  1  0
  8  9  2  0
  9  4  1  0
M  END
>  <Title>  (1121) 
idABPEgen14

$$$$

     RDKit          2D

  8  7  0  0  0  0  0  0  0  0999 V2000
    0.0000    0.0000    0.0000 C   0  0  0  0  0  0  0  0  0  0  0  0
    1.2990    0.7500    0.0000 C   0  0  0  0  0  0  0  0  0  0  0  0
    2.5981   -0.0000    0.0000 C   0  0  0  0  0  0  0  0  0  0  0  0
    3.8971    0.7500    0.0000 C   0  0  0  0  0  0  0  0  0  0  0  0
    5.1962   -0.0000    0.0000 C   0  0  0  0  0  0  0  0  0  0  0  0
    6.4952    0.7500    0.0000 C   0  0  0  0  0  0  0  0  0  0  0  0
    7.7942   -0.0000    0.0000 C   0  0  0  0  0  0  0  0  0  0  0  0
    9.0933    0.7500    0.0000 C   0  0  0  0  0  0  0  0  0  0  0  0
  1  2  1  0
  2  3  1  0
  3  4  1  0
  4  5  1  0
  5  6  1  0
  6  7  1  0
  7  8  1  0
M  END
>  <Title>  (1122) 
idABPFgen14

$$$$

     RDKit          2D

 13 12  0  0  0  0  0  0  0  0999 V2000
    0.0000    0.0000    0.0000 C   0  0  0  0  0  0  0  0  0  0  0  0
    1.2990    0.7500    0.0000 C   0  0  0  0  0  0  0  0  0  0  0  0
    2.5981   -0.0000    0.0000 N   0  0  0  0  0  0  0  0  0  0  0  0
    3.8971    0.7500    0.0000 N   0  0  0  0  0  0  0  0  0  0  0  0
    5.1962   -0.0000    0.0000 C   0  0  0  0  0  0  0  0  0  0  0  0
    6.4952    0.7500    0.0000 C   0  0  0  0  0  0  0  0  0  0  0  0
    5.1962   -1.5000    0.0000 N   0  0  0  0  0  0  0  0  0  0  0  0
    6.4952   -2.2500    0.0000 C   0  0  0  0  0  0  0  0  0  0  0  0
    7.7942   -1.5000    0.0000 O   0  0  0  0  0  0  0  0  0  0  0  0
    6.4952   -3.7500    0.0000 C   0  0  0  0  0  0  0  0  0  0  0  0
    7.7942   -4.5000    0.0000 C   0  0  0  0  0  0  0  0  0  0  0  0
    7.7942   -6.0000    0.0000 C   0  0  0  0  0  0  0  0  0  0  0  0
    9.0933   -3.7500    0.0000 C   0  0  0  0  0  0  0  0  0  0  0  0
  1  2  1  0
  2  3  2  3
  3  4  1  0
  4  5  1  0
  5  6  1  0
  5  7  1  0
  7  8  1  0
  8  9  2  0
  8 10  1  0
 10 11  1  0
 11 12  1  0
 11 13  1  0
M  END
>  <Title>  (1123) 
idABPGgen14

$$$$

     RDKit          2D

  7  7  0  0  0  0  0  0  0  0999 V2000
    3.0000    0.0000    0.0000 C   0  0  0  0  0  0  0  0  0  0  0  0
    1.5000    0.0000    0.0000 N   0  0  0  0  0  0  0  0  0  0  0  0
    0.7500   -1.2990    0.0000 C   0  0  0  0  0  0  0  0  0  0  0  0
   -0.7500   -1.2990    0.0000 C   0  0  0  0  0  0  0  0  0  0  0  0
   -1.5000    0.0000    0.0000 C   0  0  0  0  0  0  0  0  0  0  0  0
   -0.7500    1.2990    0.0000 C   0  0  0  0  0  0  0  0  0  0  0  0
    0.7500    1.2990    0.0000 C   0  0  0  0  0  0  0  0  0  0  0  0
  1  2  1  0
  2  3  1  0
  3  4  2  0
  4  5  1  0
  5  6  2  0
  6  7  1  0
  7  2  1  0
M  END
>  <Title>  (1124) 
idABPHgen14

$$$$

     RDKit          2D

105106  0  0  0  0  0  0  0  0999 V2000
    8.0876   -4.3653    0.0000 C   0  0  0  0  0  0  0  0  0  0  0  0
    8.8813   -4.4392    0.0000 C   0  0  0  0  0  0  0  0  0  0  0  0
    8.8135   -5.9376    0.0000 C   0  0  0  0  0  0  0  0  0  0  0  0
    8.8885   -7.4358    0.0000 C   0  0  0  0  0  0  0  0  0  0  0  0
    9.1055   -8.9200    0.0000 C   0  0  0  0  0  0  0  0  0  0  0  0
    9.4626  -10.3769    0.0000 C   0  0  0  0  0  0  0  0  0  0  0  0
    9.9565  -11.7932    0.0000 C   0  0  0  0  0  0  0  0  0  0  0  0
   10.5829  -13.1561    0.0000 C   0  0  0  0  0  0  0  0  0  0  0  0
   11.3360  -14.4534    0.0000 C   0  0  0  0  0  0  0  0  0  0  0  0
   12.2090  -15.6732    0.0000 C   0  0  0  0  0  0  0  0  0  0  0  0
   13.1940  -16.8045    0.0000 C   0  0  0  0  0  0  0  0  0  0  0  0
   14.2820  -17.8370    0.0000 C   0  0  0  0  0  0  0  0  0  0  0  0
   15.4633  -18.7614    0.0000 C   0  0  0  0  0  0  0  0  0  0  0  0
   16.7271  -19.5694    0.0000 C   0  0  0  0  0  0  0  0  0  0  0  0
   18.0620  -20.2535    0.0000 C   0  0  0  0  0  0  0  0  0  0  0  0
   19.4559  -20.8077    0.0000 C   0  0  0  0  0  0  0  0  0  0  0  0
   20.8961  -21.2269    0.0000 C   0  0  0  0  0  0  0  0  0  0  0  0
   22.3697  -21.5073    0.0000 C   0  0  0  0  0  0  0  0  0  0  0  0
   23.8632  -21.6463    0.0000 C   0  0  0  0  0  0  0  0  0  0  0  0
   25.3632  -21.6427    0.0000 C   0  0  0  0  0  0  0  0  0  0  0  0
   26.8561  -21.4966    0.0000 C   0  0  0  0  0  0  0  0  0  0  0  0
   28.3283  -21.2092    0.0000 C   0  0  0  0  0  0  0  0  0  0  0  0
   29.7665  -20.7832    0.0000 C   0  0  0  0  0  0  0  0  0  0  0  0
   31.1578  -20.2224    0.0000 C   0  0  0  0  0  0  0  0  0  0  0  0
   32.4894  -19.5319    0.0000 C   0  0  0  0  0  0  0  0  0  0  0  0
   33.7493  -18.7179    0.0000 C   0  0  0  0  0  0  0  0  0  0  0  0
   34.9262  -17.7879    0.0000 C   0  0  0  0  0  0  0  0  0  0  0  0
   36.0093  -16.7502    0.0000 C   0  0  0  0  0  0  0  0  0  0  0  0
   36.9889  -15.6142    0.0000 C   0  0  0  0  0  0  0  0  0  0  0  0
   37.8561  -14.3903    0.0000 C   0  0  0  0  0  0  0  0  0  0  0  0
   38.6030  -13.0895    0.0000 C   0  0  0  0  0  0  0  0  0  0  0  0
   39.2229  -11.7235    0.0000 C   0  0  0  0  0  0  0  0  0  0  0  0
   39.7101  -10.3049    0.0000 C   0  0  0  0  0  0  0  0  0  0  0  0
   40.0603   -8.8463    0.0000 C   0  0  0  0  0  0  0  0  0  0  0  0
   40.2702   -7.3611    0.0000 C   0  0  0  0  0  0  0  0  0  0  0  0
   40.3380   -5.8626    0.0000 C   0  0  0  0  0  0  0  0  0  0  0  0
   40.2631   -4.3645    0.0000 C   0  0  0  0  0  0  0  0  0  0  0  0
   40.0461   -2.8803    0.0000 C   0  0  0  0  0  0  0  0  0  0  0  0
   39.6890   -1.4234    0.0000 C   0  0  0  0  0  0  0  0  0  0  0  0
   39.1950   -0.0071    0.0000 C   0  0  0  0  0  0  0  0  0  0  0  0
   38.5686    1.3559    0.0000 C   0  0  0  0  0  0  0  0  0  0  0  0
   37.8155    2.6532    0.0000 C   0  0  0  0  0  0  0  0  0  0  0  0
   36.9425    3.8729    0.0000 C   0  0  0  0  0  0  0  0  0  0  0  0
   35.9576    5.0042    0.0000 C   0  0  0  0  0  0  0  0  0  0  0  0
   34.8695    6.0368    0.0000 C   0  0  0  0  0  0  0  0  0  0  0  0
   33.6882    6.9612    0.0000 C   0  0  0  0  0  0  0  0  0  0  0  0
   32.4244    7.7691    0.0000 C   0  0  0  0  0  0  0  0  0  0  0  0
   31.0895    8.4533    0.0000 C   0  0  0  0  0  0  0  0  0  0  0  0
   29.6956    9.0075    0.0000 C   0  0  0  0  0  0  0  0  0  0  0  0
   28.2554    9.4267    0.0000 C   0  0  0  0  0  0  0  0  0  0  0  0
   26.7818    9.7070    0.0000 C   0  0  0  0  0  0  0  0  0  0  0  0
   25.2883    9.8461    0.0000 C   0  0  0  0  0  0  0  0  0  0  0  0
   23.7883    9.8425    0.0000 C   0  0  0  0  0  0  0  0  0  0  0  0
   22.2954    9.6964    0.0000 C   0  0  0  0  0  0  0  0  0  0  0  0
   20.8232    9.4090    0.0000 C   0  0  0  0  0  0  0  0  0  0  0  0
   19.3850    8.9829    0.0000 C   0  0  0  0  0  0  0  0  0  0  0  0
   17.9938    8.4221    0.0000 C   0  0  0  0  0  0  0  0  0  0  0  0
   16.6622    7.7316    0.0000 C   0  0  0  0  0  0  0  0  0  0  0  0
   15.4022    6.9177    0.0000 C   0  0  0  0  0  0  0  0  0  0  0  0
   14.2253    5.9876    0.0000 C   0  0  0  0  0  0  0  0  0  0  0  0
   13.1422    4.9499    0.0000 C   0  0  0  0  0  0  0  0  0  0  0  0
   12.1626    3.8140    0.0000 C   0  0  0  0  0  0  0  0  0  0  0  0
   11.2954    2.5900    0.0000 C   0  0  0  0  0  0  0  0  0  0  0  0
   10.5485    1.2892    0.0000 C   0  0  0  0  0  0  0  0  0  0  0  0
    9.9287   -0.0767    0.0000 C   0  0  0  0  0  0  0  0  0  0  0  0
    9.4414   -1.4954    0.0000 C   0  0  0  0  0  0  0  0  0  0  0  0
    8.8591   -0.0000    0.0000 C   0  0  0  0  0  0  0  0  0  0  0  0
    8.7501    1.3859    0.0000 C   0  0  0  0  0  0  0  0  0  0  0  0
    8.4255    2.7376    0.0000 C   0  0  0  0  0  0  0  0  0  0  0  0
    7.8935    4.0220    0.0000 C   0  0  0  0  0  0  0  0  0  0  0  0
    7.1672    5.2073    0.0000 C   0  0  0  0  0  0  0  0  0  0  0  0
    6.2643    6.2643    0.0000 C   0  0  0  0  0  0  0  0  0  0  0  0
    5.2073    7.1672    0.0000 C   0  0  0  0  0  0  0  0  0  0  0  0
    4.0220    7.8935    0.0000 C   0  0  0  0  0  0  0  0  0  0  0  0
    2.7376    8.4255    0.0000 C   0  0  0  0  0  0  0  0  0  0  0  0
    1.3859    8.7501    0.0000 C   0  0  0  0  0  0  0  0  0  0  0  0
    0.0000    8.8591    0.0000 C   0  0  0  0  0  0  0  0  0  0  0  0
   -1.3859    8.7501    0.0000 C   0  0  0  0  0  0  0  0  0  0  0  0
   -2.7376    8.4255    0.0000 C   0  0  0  0  0  0  0  0  0  0  0  0
   -4.0220    7.8935    0.0000 C   0  0  0  0  0  0  0  0  0  0  0  0
   -5.2073    7.1672    0.0000 C   0  0  0  0  0  0  0  0  0  0  0  0
   -6.2643    6.2643    0.0000 C   0  0  0  0  0  0  0  0  0  0  0  0
   -7.1672    5.2073    0.0000 C   0  0  0  0  0  0  0  0  0  0  0  0
   -7.8935    4.0220    0.0000 C   0  0  0  0  0  0  0  0  0  0  0  0
   -8.4255    2.7376    0.0000 C   0  0  0  0  0  0  0  0  0  0  0  0
   -8.7501    1.3859    0.0000 C   0  0  0  0  0  0  0  0  0  0  0  0
   -8.8591    0.0000    0.0000 C   0  0  0  0  0  0  0  0  0  0  0  0
   -8.7501   -1.3859    0.0000 C   0  0  0  0  0  0  0  0  0  0  0  0
   -8.4255   -2.7376    0.0000 C   0  0  0  0  0  0  0  0  0  0  0  0
   -7.8935   -4.0220    0.0000 C   0  0  0  0  0  0  0  0  0  0  0  0
   -7.1672   -5.2073    0.0000 C   0  0  0  0  0  0  0  0  0  0  0  0
   -6.2643   -6.2643    0.0000 C   0  0  0  0  0  0  0  0  0  0  0  0
   -5.2073   -7.1672    0.0000 C   0  0  0  0  0  0  0  0  0  0  0  0
   -4.0220   -7.8935    0.0000 C   0  0  0  0  0  0  0  0  0  0  0  0
   -2.7376   -8.4255    0.0000 C   0  0  0  0  0  0  0  0  0  0  0  0
   -1.3859   -8.7501    0.0000 C   0  0  0  0  0  0  0  0  0  0  0  0
   -0.0000   -8.8591    0.0000 C   0  0  0  0  0  0  0  0  0  0  0  0
    1.3859   -8.7501    0.0000 C   0  0  0  0  0  0  0  0  0  0  0  0
    2.7376   -8.4255    0.0000 C   0  0  0  0  0  0  0  0  0  0  0  0
    4.0220   -7.8935    0.0000 C   0  0  0  0  0  0  0  0  0  0  0  0
    5.2073   -7.1672    0.0000 C   0  0  0  0  0  0  0  0  0  0  0  0
    6.2643   -6.2643    0.0000 C   0  0  0  0  0  0  0  0  0  0  0  0
    7.1672   -5.2073    0.0000 C   0  0  0  0  0  0  0  0  0  0  0  0
    7.8935   -4.0220    0.0000 C   0  0  0  0  0  0  0  0  0  0  0  0
    9.0913   -2.9539    0.0000 C   0  0  0  0  0  0  0  0  0  0  0  0
  1  2  1  0
  2  3  1  0
  3  4  1  0
  4  5  1  0
  5  6  1  0
  6  7  1  0
  7  8  1  0
  8  9  1  0
  9 10  1  0
 10 11  1  0
 11 12  1  0
 12 13  1  0
 13 14  1  0
 14 15  1  0
 15 16  1  0
 16 17  1  0
 17 18  1  0
 18 19  1  0
 19 20  1  0
 20 21  1  0
 21 22  1  0
 22 23  1  0
 23 24  1  0
 24 25  1  0
 25 26  1  0
 26 27  1  0
 27 28  1  0
 28 29  1  0
 29 30  1  0
 30 31  1  0
 31 32  1  0
 32 33  1  0
 33 34  1  0
 34 35  1  0
 35 36  1  0
 36 37  1  0
 37 38  1  0
 38 39  1  0
 39 40  1  0
 40 41  1  0
 41 42  1  0
 42 43  1  0
 43 44  1  0
 44 45  1  0
 45 46  1  0
 46 47  1  0
 47 48  1  0
 48 49  1  0
 49 50  1  0
 50 51  1  0
 51 52  1  0
 52 53  1  0
 53 54  1  0
 54 55  1  0
 55 56  1  0
 56 57  1  0
 57 58  1  0
 58 59  1  0
 59 60  1  0
 60 61  1  0
 61 62  1  0
 62 63  1  0
 63 64  1  0
 64 65  1  0
 65 66  1  0
 66 67  1  0
 67 68  1  0
 68 69  1  0
 69 70  1  0
 70 71  1  0
 71 72  1  0
 72 73  1  0
 73 74  1  0
 74 75  1  0
 75 76  1  0
 76 77  1  0
 77 78  1  0
 78 79  1  0
 79 80  1  0
 80 81  1  0
 81 82  1  0
 82 83  1  0
 83 84  1  0
 84 85  1  0
 85 86  1  0
 86 87  1  0
 87 88  1  0
 88 89  1  0
 89 90  1  0
 90 91  1  0
 91 92  1  0
 92 93  1  0
 93 94  1  0
 94 95  2  0
 95 96  1  0
 96 97  2  0
 97 98  1  0
 98 99  2  0
 99100  1  0
100101  2  0
101102  1  0
102103  2  0
103104  1  0
104105  2  0
105  2  1  0
105 66  1  0
M  END
>  <Title>  (1125) 
idABPIgen14

$$$$

     RDKit          2D

  8  7  0  0  0  0  0  0  0  0999 V2000
    0.0000    0.0000    0.0000 C   0  0  0  0  0  0  0  0  0  0  0  0
    1.2990    0.7500    0.0000 C   0  0  0  0  0  0  0  0  0  0  0  0
    2.5981   -0.0000    0.0000 C   0  0  0  0  0  0  0  0  0  0  0  0
    3.8971    0.7500    0.0000 C   0  0  0  0  0  0  0  0  0  0  0  0
    2.5981   -1.5000    0.0000 C   0  0  0  0  0  0  0  0  0  0  0  0
    3.8971   -2.2500    0.0000 C   0  0  0  0  0  0  0  0  0  0  0  0
    3.8971   -3.7500    0.0000 C   0  0  0  0  0  0  0  0  0  0  0  0
    5.1962   -1.5000    0.0000 N   0  0  0  0  0  0  0  0  0  0  0  0
  1  2  1  0
  2  3  1  0
  3  4  1  0
  3  5  1  0
  5  6  1  0
  6  7  1  0
  6  8  1  0
M  END
>  <Title>  (1126) 
idABPJgen14

$$$$

     RDKit          2D

 74 75  0  0  0  0  0  0  0  0999 V2000
    0.9830    3.5301    0.0000 C   0  0  0  0  0  0  0  0  0  0  0  0
    2.3692    4.1030    0.0000 C   0  0  0  0  0  0  0  0  0  0  0  0
    1.8722    5.5183    0.0000 C   0  0  0  0  0  0  0  0  0  0  0  0
    1.5311    6.9790    0.0000 C   0  0  0  0  0  0  0  0  0  0  0  0
    1.3499    8.4680    0.0000 C   0  0  0  0  0  0  0  0  0  0  0  0
    1.3308    9.9679    0.0000 C   0  0  0  0  0  0  0  0  0  0  0  0
    1.4740   11.4610    0.0000 C   0  0  0  0  0  0  0  0  0  0  0  0
    1.7777   12.9299    0.0000 C   0  0  0  0  0  0  0  0  0  0  0  0
    2.2385   14.3574    0.0000 C   0  0  0  0  0  0  0  0  0  0  0  0
    2.8510   15.7267    0.0000 C   0  0  0  0  0  0  0  0  0  0  0  0
    3.6079   17.0217    0.0000 C   0  0  0  0  0  0  0  0  0  0  0  0
    4.5003   18.2273    0.0000 C   0  0  0  0  0  0  0  0  0  0  0  0
    5.5179   19.3294    0.0000 C   0  0  0  0  0  0  0  0  0  0  0  0
    6.6487   20.3150    0.0000 C   0  0  0  0  0  0  0  0  0  0  0  0
    7.8794   21.1725    0.0000 C   0  0  0  0  0  0  0  0  0  0  0  0
    9.1956   21.8919    0.0000 C   0  0  0  0  0  0  0  0  0  0  0  0
   10.5819   22.4649    0.0000 C   0  0  0  0  0  0  0  0  0  0  0  0
   12.0220   22.8845    0.0000 C   0  0  0  0  0  0  0  0  0  0  0  0
   13.4990   23.1461    0.0000 C   0  0  0  0  0  0  0  0  0  0  0  0
   14.9956   23.2464    0.0000 C   0  0  0  0  0  0  0  0  0  0  0  0
   16.4944   23.1842    0.0000 C   0  0  0  0  0  0  0  0  0  0  0  0
   17.9776   22.9605    0.0000 C   0  0  0  0  0  0  0  0  0  0  0  0
   19.4279   22.5776    0.0000 C   0  0  0  0  0  0  0  0  0  0  0  0
   20.8283   22.0402    0.0000 C   0  0  0  0  0  0  0  0  0  0  0  0
   22.1624   21.3545    0.0000 C   0  0  0  0  0  0  0  0  0  0  0  0
   23.4146   20.5287    0.0000 C   0  0  0  0  0  0  0  0  0  0  0  0
   24.5701   19.5722    0.0000 C   0  0  0  0  0  0  0  0  0  0  0  0
   25.6155   18.4965    0.0000 C   0  0  0  0  0  0  0  0  0  0  0  0
   26.5384   17.3140    0.0000 C   0  0  0  0  0  0  0  0  0  0  0  0
   27.3280   16.0387    0.0000 C   0  0  0  0  0  0  0  0  0  0  0  0
   27.9751   14.6854    0.0000 C   0  0  0  0  0  0  0  0  0  0  0  0
   28.4722   13.2702    0.0000 C   0  0  0  0  0  0  0  0  0  0  0  0
   28.8133   11.8095    0.0000 C   0  0  0  0  0  0  0  0  0  0  0  0
   28.9944   10.3205    0.0000 C   0  0  0  0  0  0  0  0  0  0  0  0
   29.0136    8.8206    0.0000 C   0  0  0  0  0  0  0  0  0  0  0  0
   28.8704    7.3274    0.0000 C   0  0  0  0  0  0  0  0  0  0  0  0
   28.5666    5.8585    0.0000 C   0  0  0  0  0  0  0  0  0  0  0  0
   28.1058    4.4310    0.0000 C   0  0  0  0  0  0  0  0  0  0  0  0
   27.4934    3.0618    0.0000 C   0  0  0  0  0  0  0  0  0  0  0  0
   26.7365    1.7667    0.0000 C   0  0  0  0  0  0  0  0  0  0  0  0
   25.8441    0.5611    0.0000 C   0  0  0  0  0  0  0  0  0  0  0  0
   24.8265   -0.5409    0.0000 C   0  0  0  0  0  0  0  0  0  0  0  0
   23.6957   -1.5265    0.0000 C   0  0  0  0  0  0  0  0  0  0  0  0
   22.4650   -2.3840    0.0000 C   0  0  0  0  0  0  0  0  0  0  0  0
   21.1488   -3.1035    0.0000 C   0  0  0  0  0  0  0  0  0  0  0  0
   19.7625   -3.6764    0.0000 C   0  0  0  0  0  0  0  0  0  0  0  0
   18.3224   -4.0961    0.0000 C   0  0  0  0  0  0  0  0  0  0  0  0
   16.8454   -4.3576    0.0000 C   0  0  0  0  0  0  0  0  0  0  0  0
   15.3487   -4.4579    0.0000 C   0  0  0  0  0  0  0  0  0  0  0  0
   13.8500   -4.3958    0.0000 C   0  0  0  0  0  0  0  0  0  0  0  0
   12.3668   -4.1720    0.0000 C   0  0  0  0  0  0  0  0  0  0  0  0
   10.9165   -3.7892    0.0000 C   0  0  0  0  0  0  0  0  0  0  0  0
    9.5161   -3.2518    0.0000 C   0  0  0  0  0  0  0  0  0  0  0  0
    8.1820   -2.5661    0.0000 C   0  0  0  0  0  0  0  0  0  0  0  0
    6.9298   -1.7402    0.0000 C   0  0  0  0  0  0  0  0  0  0  0  0
    5.7743   -0.7838    0.0000 C   0  0  0  0  0  0  0  0  0  0  0  0
    4.7289    0.2920    0.0000 C   0  0  0  0  0  0  0  0  0  0  0  0
    3.8060    1.4745    0.0000 C   0  0  0  0  0  0  0  0  0  0  0  0
    4.0816    0.0000    0.0000 C   0  0  0  0  0  0  0  0  0  0  0  0
    3.8060   -1.4745    0.0000 C   0  0  0  0  0  0  0  0  0  0  0  0
    3.0164   -2.7498    0.0000 C   0  0  0  0  0  0  0  0  0  0  0  0
    1.8193   -3.6537    0.0000 C   0  0  0  0  0  0  0  0  0  0  0  0
    0.3766   -4.0642    0.0000 C   0  0  0  0  0  0  0  0  0  0  0  0
   -1.1170   -3.9258    0.0000 C   0  0  0  0  0  0  0  0  0  0  0  0
   -2.4597   -3.2572    0.0000 C   0  0  0  0  0  0  0  0  0  0  0  0
   -3.4703   -2.1487    0.0000 C   0  0  0  0  0  0  0  0  0  0  0  0
   -4.0121   -0.7500    0.0000 C   0  0  0  0  0  0  0  0  0  0  0  0
   -4.0121    0.7500    0.0000 C   0  0  0  0  0  0  0  0  0  0  0  0
   -3.4703    2.1487    0.0000 C   0  0  0  0  0  0  0  0  0  0  0  0
   -2.4597    3.2572    0.0000 C   0  0  0  0  0  0  0  0  0  0  0  0
   -1.1170    3.9258    0.0000 C   0  0  0  0  0  0  0  0  0  0  0  0
    0.3766    4.0642    0.0000 C   0  0  0  0  0  0  0  0  0  0  0  0
    1.8193    3.6537    0.0000 C   0  0  0  0  0  0  0  0  0  0  0  0
    3.0164    2.7498    0.0000 C   0  0  0  0  0  0  0  0  0  0  0  0
  1  2  1  0
  2  3  1  0
  3  4  1  0
  4  5  1  0
  5  6  1  0
  6  7  1  0
  7  8  1  0
  8  9  1  0
  9 10  1  0
 10 11  1  0
 11 12  1  0
 12 13  1  0
 13 14  1  0
 14 15  1  0
 15 16  1  0
 16 17  1  0
 17 18  1  0
 18 19  1  0
 19 20  1  0
 20 21  1  0
 21 22  1  0
 22 23  1  0
 23 24  1  0
 24 25  1  0
 25 26  1  0
 26 27  1  0
 27 28  1  0
 28 29  1  0
 29 30  1  0
 30 31  1  0
 31 32  1  0
 32 33  1  0
 33 34  1  0
 34 35  1  0
 35 36  1  0
 36 37  1  0
 37 38  1  0
 38 39  1  0
 39 40  1  0
 40 41  1  0
 41 42  1  0
 42 43  1  0
 43 44  1  0
 44 45  1  0
 45 46  1  0
 46 47  1  0
 47 48  1  0
 48 49  1  0
 49 50  1  0
 50 51  1  0
 51 52  1  0
 52 53  1  0
 53 54  1  0
 54 55  1  0
 55 56  1  0
 56 57  1  0
 57 58  1  0
 58 59  1  0
 59 60  2  0
 60 61  1  0
 61 62  2  0
 62 63  1  0
 63 64  2  0
 64 65  1  0
 65 66  2  0
 66 67  1  0
 67 68  2  0
 68 69  1  0
 69 70  2  0
 70 71  1  0
 71 72  2  0
 72 73  1  0
 73 74  2  0
 74  2  1  0
 74 58  1  0
M  END
>  <Title>  (1127) 
idABPKgen14

$$$$

     RDKit          2D

109110  0  0  0  0  0  0  0  0999 V2000
   -2.3830    0.1042    0.0000 C   0  0  0  0  0  0  0  0  0  0  0  0
   -2.2473   -1.3896    0.0000 C   0  0  0  0  0  0  0  0  0  0  0  0
   -3.7363   -1.5704    0.0000 C   0  0  0  0  0  0  0  0  0  0  0  0
   -5.2118   -1.8408    0.0000 C   0  0  0  0  0  0  0  0  0  0  0  0
   -6.6682   -2.1998    0.0000 C   0  0  0  0  0  0  0  0  0  0  0  0
   -8.1003   -2.6460    0.0000 C   0  0  0  0  0  0  0  0  0  0  0  0
   -9.5028   -3.1779    0.0000 C   0  0  0  0  0  0  0  0  0  0  0  0
  -10.8706   -3.7935    0.0000 C   0  0  0  0  0  0  0  0  0  0  0  0
  -12.1988   -4.4906    0.0000 C   0  0  0  0  0  0  0  0  0  0  0  0
  -13.4825   -5.2666    0.0000 C   0  0  0  0  0  0  0  0  0  0  0  0
  -14.7170   -6.1187    0.0000 C   0  0  0  0  0  0  0  0  0  0  0  0
  -15.8977   -7.0438    0.0000 C   0  0  0  0  0  0  0  0  0  0  0  0
  -17.0205   -8.0385    0.0000 C   0  0  0  0  0  0  0  0  0  0  0  0
  -18.0812   -9.0992    0.0000 C   0  0  0  0  0  0  0  0  0  0  0  0
  -19.0758  -10.2219    0.0000 C   0  0  0  0  0  0  0  0  0  0  0  0
  -20.0009  -11.4027    0.0000 C   0  0  0  0  0  0  0  0  0  0  0  0
  -20.8530  -12.6372    0.0000 C   0  0  0  0  0  0  0  0  0  0  0  0
  -21.6290  -13.9208    0.0000 C   0  0  0  0  0  0  0  0  0  0  0  0
  -22.3261  -15.2490    0.0000 C   0  0  0  0  0  0  0  0  0  0  0  0
  -22.9417  -16.6169    0.0000 C   0  0  0  0  0  0  0  0  0  0  0  0
  -23.4736  -18.0194    0.0000 C   0  0  0  0  0  0  0  0  0  0  0  0
  -23.9199  -19.4515    0.0000 C   0  0  0  0  0  0  0  0  0  0  0  0
  -24.2789  -20.9079    0.0000 C   0  0  0  0  0  0  0  0  0  0  0  0
  -24.5492  -22.3833    0.0000 C   0  0  0  0  0  0  0  0  0  0  0  0
  -24.7301  -23.8724    0.0000 C   0  0  0  0  0  0  0  0  0  0  0  0
  -24.8206  -25.3697    0.0000 C   0  0  0  0  0  0  0  0  0  0  0  0
  -24.8206  -26.8697    0.0000 C   0  0  0  0  0  0  0  0  0  0  0  0
  -24.7301  -28.3669    0.0000 C   0  0  0  0  0  0  0  0  0  0  0  0
  -24.5492  -29.8560    0.0000 C   0  0  0  0  0  0  0  0  0  0  0  0
  -24.2789  -31.3314    0.0000 C   0  0  0  0  0  0  0  0  0  0  0  0
  -23.9199  -32.7878    0.0000 C   0  0  0  0  0  0  0  0  0  0  0  0
  -23.4736  -34.2199    0.0000 C   0  0  0  0  0  0  0  0  0  0  0  0
  -22.9417  -35.6224    0.0000 C   0  0  0  0  0  0  0  0  0  0  0  0
  -22.3261  -36.9903    0.0000 C   0  0  0  0  0  0  0  0  0  0  0  0
  -21.6290  -38.3185    0.0000 C   0  0  0  0  0  0  0  0  0  0  0  0
  -20.8530  -39.6021    0.0000 C   0  0  0  0  0  0  0  0  0  0  0  0
  -20.0009  -40.8366    0.0000 C   0  0  0  0  0  0  0  0  0  0  0  0
  -19.0758  -42.0174    0.0000 C   0  0  0  0  0  0  0  0  0  0  0  0
  -18.0812  -43.1402    0.0000 C   0  0  0  0  0  0  0  0  0  0  0  0
  -17.0205  -44.2008    0.0000 C   0  0  0  0  0  0  0  0  0  0  0  0
  -15.8977  -45.1955    0.0000 C   0  0  0  0  0  0  0  0  0  0  0  0
  -14.7170  -46.1206    0.0000 C   0  0  0  0  0  0  0  0  0  0  0  0
  -13.4825  -46.9727    0.0000 C   0  0  0  0  0  0  0  0  0  0  0  0
  -12.1988  -47.7487    0.0000 C   0  0  0  0  0  0  0  0  0  0  0  0
  -10.8706  -48.4458    0.0000 C   0  0  0  0  0  0  0  0  0  0  0  0
   -9.5028  -49.0614    0.0000 C   0  0  0  0  0  0  0  0  0  0  0  0
   -8.1003  -49.5933    0.0000 C   0  0  0  0  0  0  0  0  0  0  0  0
   -6.6682  -50.0395    0.0000 C   0  0  0  0  0  0  0  0  0  0  0  0
   -5.2118  -50.3985    0.0000 C   0  0  0  0  0  0  0  0  0  0  0  0
   -3.7363  -50.6689    0.0000 C   0  0  0  0  0  0  0  0  0  0  0  0
   -2.2473  -50.8497    0.0000 C   0  0  0  0  0  0  0  0  0  0  0  0
   -0.7500  -50.9403    0.0000 C   0  0  0  0  0  0  0  0  0  0  0  0
    0.7500  -50.9403    0.0000 C   0  0  0  0  0  0  0  0  0  0  0  0
    2.2473  -50.8497    0.0000 C   0  0  0  0  0  0  0  0  0  0  0  0
    3.7363  -50.6689    0.0000 C   0  0  0  0  0  0  0  0  0  0  0  0
    5.2118  -50.3985    0.0000 C   0  0  0  0  0  0  0  0  0  0  0  0
    6.6682  -50.0395    0.0000 C   0  0  0  0  0  0  0  0  0  0  0  0
    8.1003  -49.5933    0.0000 C   0  0  0  0  0  0  0  0  0  0  0  0
    9.5028  -49.0614    0.0000 C   0  0  0  0  0  0  0  0  0  0  0  0
   10.8706  -48.4458    0.0000 C   0  0  0  0  0  0  0  0  0  0  0  0
   12.1988  -47.7487    0.0000 C   0  0  0  0  0  0  0  0  0  0  0  0
   13.4825  -46.9727    0.0000 C   0  0  0  0  0  0  0  0  0  0  0  0
   14.7170  -46.1206    0.0000 C   0  0  0  0  0  0  0  0  0  0  0  0
   15.8977  -45.1955    0.0000 C   0  0  0  0  0  0  0  0  0  0  0  0
   17.0205  -44.2008    0.0000 C   0  0  0  0  0  0  0  0  0  0  0  0
   18.0812  -43.1402    0.0000 C   0  0  0  0  0  0  0  0  0  0  0  0
   19.0758  -42.0174    0.0000 C   0  0  0  0  0  0  0  0  0  0  0  0
   20.0009  -40.8366    0.0000 C   0  0  0  0  0  0  0  0  0  0  0  0
   20.8530  -39.6021    0.0000 C   0  0  0  0  0  0  0  0  0  0  0  0
   21.6290  -38.3185    0.0000 C   0  0  0  0  0  0  0  0  0  0  0  0
   22.3261  -36.9903    0.0000 C   0  0  0  0  0  0  0  0  0  0  0  0
   22.9417  -35.6224    0.0000 C   0  0  0  0  0  0  0  0  0  0  0  0
   23.4736  -34.2199    0.0000 C   0  0  0  0  0  0  0  0  0  0  0  0
   23.9199  -32.7878    0.0000 C   0  0  0  0  0  0  0  0  0  0  0  0
   24.2789  -31.3314    0.0000 C   0  0  0  0  0  0  0  0  0  0  0  0
   24.5492  -29.8560    0.0000 C   0  0  0  0  0  0  0  0  0  0  0  0
   24.7301  -28.3669    0.0000 C   0  0  0  0  0  0  0  0  0  0  0  0
   24.8206  -26.8697    0.0000 C   0  0  0  0  0  0  0  0  0  0  0  0
   24.8206  -25.3697    0.0000 C   0  0  0  0  0  0  0  0  0  0  0  0
   24.7301  -23.8724    0.0000 C   0  0  0  0  0  0  0  0  0  0  0  0
   24.5492  -22.3833    0.0000 C   0  0  0  0  0  0  0  0  0  0  0  0
   24.2789  -20.9079    0.0000 C   0  0  0  0  0  0  0  0  0  0  0  0
   23.9199  -19.4515    0.0000 C   0  0  0  0  0  0  0  0  0  0  0  0
   23.4736  -18.0194    0.0000 C   0  0  0  0  0  0  0  0  0  0  0  0
   22.9417  -16.6169    0.0000 C   0  0  0  0  0  0  0  0  0  0  0  0
   22.3261  -15.2490    0.0000 C   0  0  0  0  0  0  0  0  0  0  0  0
   21.6290  -13.9208    0.0000 C   0  0  0  0  0  0  0  0  0  0  0  0
   20.8530  -12.6372    0.0000 C   0  0  0  0  0  0  0  0  0  0  0  0
   20.0009  -11.4027    0.0000 C   0  0  0  0  0  0  0  0  0  0  0  0
   19.0758  -10.2219    0.0000 C   0  0  0  0  0  0  0  0  0  0  0  0
   18.0812   -9.0992    0.0000 C   0  0  0  0  0  0  0  0  0  0  0  0
   17.0205   -8.0385    0.0000 C   0  0  0  0  0  0  0  0  0  0  0  0
   15.8977   -7.0438    0.0000 C   0  0  0  0  0  0  0  0  0  0  0  0
   14.7170   -6.1187    0.0000 C   0  0  0  0  0  0  0  0  0  0  0  0
   13.4825   -5.2666    0.0000 C   0  0  0  0  0  0  0  0  0  0  0  0
   12.1988   -4.4906    0.0000 C   0  0  0  0  0  0  0  0  0  0  0  0
   10.8706   -3.7935    0.0000 C   0  0  0  0  0  0  0  0  0  0  0  0
    9.5028   -3.1779    0.0000 C   0  0  0  0  0  0  0  0  0  0  0  0
    8.1003   -2.6460    0.0000 C   0  0  0  0  0  0  0  0  0  0  0  0
    6.6682   -2.1998    0.0000 C   0  0  0  0  0  0  0  0  0  0  0  0
    5.2118   -1.8408    0.0000 C   0  0  0  0  0  0  0  0  0  0  0  0
    3.7363   -1.5704    0.0000 C   0  0  0  0  0  0  0  0  0  0  0  0
    2.2473   -1.3896    0.0000 C   0  0  0  0  0  0  0  0  0  0  0  0
    0.7500   -1.2990    0.0000 C   0  0  0  0  0  0  0  0  0  0  0  0
    1.5000    0.0000    0.0000 C   0  0  0  0  0  0  0  0  0  0  0  0
    0.7500    1.2990    0.0000 C   0  0  0  0  0  0  0  0  0  0  0  0
   -0.7500    1.2990    0.0000 C   0  0  0  0  0  0  0  0  0  0  0  0
   -1.5000    0.0000    0.0000 C   0  0  0  0  0  0  0  0  0  0  0  0
   -0.7500   -1.2990    0.0000 C   0  0  0  0  0  0  0  0  0  0  0  0
  1  2  1  0
  2  3  1  0
  3  4  1  0
  4  5  1  0
  5  6  1  0
  6  7  1  0
  7  8  1  0
  8  9  1  0
  9 10  1  0
 10 11  1  0
 11 12  1  0
 12 13  1  0
 13 14  1  0
 14 15  1  0
 15 16  1  0
 16 17  1  0
 17 18  1  0
 18 19  1  0
 19 20  1  0
 20 21  1  0
 21 22  1  0
 22 23  1  0
 23 24  1  0
 24 25  1  0
 25 26  1  0
 26 27  1  0
 27 28  1  0
 28 29  1  0
 29 30  1  0
 30 31  1  0
 31 32  1  0
 32 33  1  0
 33 34  1  0
 34 35  1  0
 35 36  1  0
 36 37  1  0
 37 38  1  0
 38 39  1  0
 39 40  1  0
 40 41  1  0
 41 42  1  0
 42 43  1  0
 43 44  1  0
 44 45  1  0
 45 46  1  0
 46 47  1  0
 47 48  1  0
 48 49  1  0
 49 50  1  0
 50 51  1  0
 51 52  1  0
 52 53  1  0
 53 54  1  0
 54 55  1  0
 55 56  1  0
 56 57  1  0
 57 58  1  0
 58 59  1  0
 59 60  1  0
 60 61  1  0
 61 62  1  0
 62 63  1  0
 63 64  1  0
 64 65  1  0
 65 66  1  0
 66 67  1  0
 67 68  1  0
 68 69  1  0
 69 70  1  0
 70 71  1  0
 71 72  1  0
 72 73  1  0
 73 74  1  0
 74 75  1  0
 75 76  1  0
 76 77  1  0
 77 78  1  0
 78 79  1  0
 79 80  1  0
 80 81  1  0
 81 82  1  0
 82 83  1  0
 83 84  1  0
 84 85  1  0
 85 86  1  0
 86 87  1  0
 87 88  1  0
 88 89  1  0
 89 90  1  0
 90 91  1  0
 91 92  1  0
 92 93  1  0
 93 94  1  0
 94 95  1  0
 95 96  1  0
 96 97  1  0
 97 98  1  0
 98 99  1  0
 99100  1  0
100101  1  0
101102  1  0
102103  1  0
103104  1  0
104105  2  0
105106  1  0
106107  2  0
107108  1  0
108109  2  0
109  2  1  0
109104  1  0
M  END
>  <Title>  (1128) 
idABPLgen14

$$$$

     RDKit          2D

 13 12  0  0  0  0  0  0  0  0999 V2000
    0.0000    0.0000    0.0000 C   0  0  0  0  0  0  0  0  0  0  0  0
    1.2990    0.7500    0.0000 C   0  0  0  0  0  0  0  0  0  0  0  0
    2.5981   -0.0000    0.0000 C   0  0  0  0  0  0  0  0  0  0  0  0
    3.8971    0.7500    0.0000 C   0  0  0  0  0  0  0  0  0  0  0  0
    5.1962   -0.0000    0.0000 C   0  0  0  0  0  0  0  0  0  0  0  0
    6.4952    0.7500    0.0000 C   0  0  0  0  0  0  0  0  0  0  0  0
    7.7942   -0.0000    0.0000 C   0  0  0  0  0  0  0  0  0  0  0  0
    6.4952    2.2500    0.0000 N   0  0  0  0  0  0  0  0  0  0  0  0
    7.7942    3.0000    0.0000 C   0  0  0  0  0  0  0  0  0  0  0  0
    9.0933    2.2500    0.0000 O   0  0  0  0  0  0  0  0  0  0  0  0
    7.7942    4.5000    0.0000 C   0  0  0  0  0  0  0  0  0  0  0  0
    9.0933    5.2500    0.0000 C   0  0  0  0  0  0  0  0  0  0  0  0
    9.0933    6.7500    0.0000 C   0  0  0  0  0  0  0  0  0  0  0  0
  1  2  1  0
  2  3  1  0
  3  4  1  0
  4  5  1  0
  5  6  1  0
  6  7  1  0
  6  8  1  0
  8  9  1  0
  9 10  2  0
  9 11  1  0
 11 12  1  0
 12 13  1  0
M  END
>  <Title>  (1129) 
idABPMgen14

$$$$

     RDKit          2D

  8  7  0  0  0  0  0  0  0  0999 V2000
    0.0000    0.0000    0.0000 C   0  0  0  0  0  0  0  0  0  0  0  0
    1.2990    0.7500    0.0000 C   0  0  0  0  0  0  0  0  0  0  0  0
    2.5981   -0.0000    0.0000 C   0  0  0  0  0  0  0  0  0  0  0  0
    1.2990    2.2500    0.0000 C   0  0  0  0  0  0  0  0  0  0  0  0
    2.5981    3.0000    0.0000 C   0  0  0  0  0  0  0  0  0  0  0  0
    2.5981    4.5000    0.0000 C   0  0  0  0  0  0  0  0  0  0  0  0
    3.8971    5.2500    0.0000 C   0  0  0  0  0  0  0  0  0  0  0  0
    1.2990    5.2500    0.0000 C   0  0  0  0  0  0  0  0  0  0  0  0
  1  2  1  0
  2  3  1  0
  2  4  1  0
  4  5  1  0
  5  6  1  0
  6  7  1  0
  6  8  1  0
M  END
>  <Title>  (1130) 
idABPNgen14

$$$$

     RDKit          2D

  7  6  0  0  0  0  0  0  0  0999 V2000
    0.0000    0.0000    0.0000 C   0  0  0  0  0  0  0  0  0  0  0  0
    1.2990    0.7500    0.0000 C   0  0  0  0  0  0  0  0  0  0  0  0
    2.5981   -0.0000    0.0000 C   0  0  0  0  0  0  0  0  0  0  0  0
    3.8971    0.7500    0.0000 C   0  0  0  0  0  0  0  0  0  0  0  0
    5.1962   -0.0000    0.0000 C   0  0  0  0  0  0  0  0  0  0  0  0
    6.4952    0.7500    0.0000 C   0  0  0  0  0  0  0  0  0  0  0  0
    5.1962   -1.5000    0.0000 C   0  0  0  0  0  0  0  0  0  0  0  0
  1  2  1  0
  2  3  2  3
  3  4  1  0
  4  5  1  0
  5  6  1  0
  5  7  1  0
M  END
>  <Title>  (1131) 
idABPOgen14

$$$$

     RDKit          2D

  7  7  0  0  0  0  0  0  0  0999 V2000
    3.0000    0.0000    0.0000 C   0  0  0  0  0  0  0  0  0  0  0  0
    1.5000    0.0000    0.0000 C   0  0  0  0  0  0  0  0  0  0  0  0
    0.7500   -1.2990    0.0000 N   0  0  0  0  0  0  0  0  0  0  0  0
   -0.7500   -1.2990    0.0000 N   0  0  0  0  0  0  0  0  0  0  0  0
   -1.5000    0.0000    0.0000 C   0  0  0  0  0  0  0  0  0  0  0  0
   -0.7500    1.2990    0.0000 C   0  0  0  0  0  0  0  0  0  0  0  0
    0.7500    1.2990    0.0000 N   0  0  0  0  0  0  0  0  0  0  0  0
  1  2  1  0
  2  3  2  0
  3  4  1  0
  4  5  1  0
  5  6  1  0
  6  7  1  0
  7  2  1  0
M  END
>  <Title>  (1132) 
idABPPgen14

$$$$

     RDKit          2D

  6  6  0  0  0  0  0  0  0  0999 V2000
    2.7760    0.0000    0.0000 C   0  0  0  0  0  0  0  0  0  0  0  0
    1.2760    0.0000    0.0000 N   0  0  0  0  0  0  0  0  0  0  0  0
    0.3943    1.2135    0.0000 C   0  0  0  0  0  0  0  0  0  0  0  0
   -1.0323    0.7500    0.0000 C   0  0  0  0  0  0  0  0  0  0  0  0
   -1.0323   -0.7500    0.0000 C   0  0  0  0  0  0  0  0  0  0  0  0
    0.3943   -1.2135    0.0000 C   0  0  0  0  0  0  0  0  0  0  0  0
  1  2  1  0
  2  3  1  0
  3  4  2  0
  4  5  1  0
  5  6  2  0
  6  2  1  0
M  END
>  <Title>  (1133) 
idABPQgen14

$$$$

     RDKit          2D

 12 12  0  0  0  0  0  0  0  0999 V2000
    6.0000   -2.5981    0.0000 C   0  0  0  0  0  0  0  0  0  0  0  0
    5.2500   -1.2990    0.0000 C   0  0  0  0  0  0  0  0  0  0  0  0
    6.0000    0.0000    0.0000 C   0  0  0  0  0  0  0  0  0  0  0  0
    6.7500    1.2990    0.0000 N   0  0  0  0  0  0  0  0  0  0  0  0
    3.7500   -1.2990    0.0000 C   0  0  0  0  0  0  0  0  0  0  0  0
    3.0000    0.0000    0.0000 C   0  0  0  0  0  0  0  0  0  0  0  0
    1.5000    0.0000    0.0000 C   0  0  0  0  0  0  0  0  0  0  0  0
    0.7500   -1.2990    0.0000 C   0  0  0  0  0  0  0  0  0  0  0  0
   -0.7500   -1.2990    0.0000 C   0  0  0  0  0  0  0  0  0  0  0  0
   -1.5000    0.0000    0.0000 C   0  0  0  0  0  0  0  0  0  0  0  0
   -0.7500    1.2990    0.0000 C   0  0  0  0  0  0  0  0  0  0  0  0
    0.7500    1.2990    0.0000 C   0  0  0  0  0  0  0  0  0  0  0  0
  1  2  1  0
  2  3  1  0
  3  4  3  0
  2  5  1  0
  5  6  1  0
  6  7  1  0
  7  8  2  0
  8  9  1  0
  9 10  1  0
 10 11  1  0
 11 12  2  0
 12  7  1  0
M  END
>  <Title>  (1134) 
idABPRgen14

$$$$

     RDKit          2D

 10  9  0  0  0  0  0  0  0  0999 V2000
    0.0000    0.0000    0.0000 C   0  0  0  0  0  0  0  0  0  0  0  0
    1.2990    0.7500    0.0000 C   0  0  0  0  0  0  0  0  0  0  0  0
    2.5981   -0.0000    0.0000 C   0  0  0  0  0  0  0  0  0  0  0  0
    3.8971    0.7500    0.0000 C   0  0  0  0  0  0  0  0  0  0  0  0
    3.8971    2.2500    0.0000 O   0  0  0  0  0  0  0  0  0  0  0  0
    5.1962   -0.0000    0.0000 N   0  0  0  0  0  0  0  0  0  0  0  0
    6.4952    0.7500    0.0000 C   0  0  0  0  0  0  0  0  0  0  0  0
    7.7942   -0.0000    0.0000 C   0  0  0  0  0  0  0  0  0  0  0  0
    9.0933    0.7500    0.0000 C   0  0  0  0  0  0  0  0  0  0  0  0
    7.7942   -1.5000    0.0000 C   0  0  0  0  0  0  0  0  0  0  0  0
  1  2  1  0
  2  3  1  0
  3  4  1  0
  4  5  2  0
  4  6  1  0
  6  7  1  0
  7  8  1  0
  8  9  1  0
  8 10  1  0
M  END
>  <Title>  (1135) 
idABPSgen14

$$$$

     RDKit          2D

 49 55  0  0  0  0  0  0  0  0999 V2000
   -7.8269   -7.6294    0.0000 C   0  0  0  0  0  0  0  0  0  0  0  0
   -6.3645   -7.9632    0.0000 C   0  0  0  0  0  0  0  0  0  0  0  0
   -5.7750   -9.3425    0.0000 C   0  0  0  0  0  0  0  0  0  0  0  0
   -4.2810   -9.2080    0.0000 C   0  0  0  0  0  0  0  0  0  0  0  0
   -3.9472   -7.7456    0.0000 C   0  0  0  0  0  0  0  0  0  0  0  0
   -5.2349   -6.9763    0.0000 C   0  0  0  0  0  0  0  0  0  0  0  0
   -5.3694   -5.4823    0.0000 C   0  0  0  0  0  0  0  0  0  0  0  0
   -6.7304   -4.8518    0.0000 O   0  0  0  0  0  0  0  0  0  0  0  0
   -4.1428   -4.6189    0.0000 N   0  0  0  0  0  0  0  0  0  0  0  0
   -4.2772   -3.1249    0.0000 C   0  0  0  0  0  0  0  0  0  0  0  0
   -5.5649   -2.3556    0.0000 N   0  0  0  0  0  0  0  0  0  0  0  0
   -5.2311   -0.8932    0.0000 N   0  0  0  0  0  0  0  0  0  0  0  0
   -3.7372   -0.7587    0.0000 N   0  0  0  0  0  0  0  0  0  0  0  0
   -3.1476   -2.1380    0.0000 N   0  0  0  0  0  0  0  0  0  0  0  0
   -1.6852   -2.4718    0.0000 C   0  0  0  0  0  0  0  0  0  0  0  0
   -1.3515   -3.9342    0.0000 C   0  0  0  0  0  0  0  0  0  0  0  0
   -0.0000   -4.5850    0.0000 C   0  0  0  0  0  0  0  0  0  0  0  0
    1.3515   -3.9342    0.0000 C   0  0  0  0  0  0  0  0  0  0  0  0
    1.6852   -2.4718    0.0000 C   0  0  0  0  0  0  0  0  0  0  0  0
    3.1476   -2.1380    0.0000 C   0  0  0  0  0  0  0  0  0  0  0  0
    3.5898   -0.7046    0.0000 O   0  0  0  0  0  0  0  0  0  0  0  0
    4.1679   -3.2376    0.0000 N   0  0  0  0  0  0  0  0  0  0  0  0
    5.6303   -2.9038    0.0000 C   0  0  0  0  0  0  0  0  0  0  0  0
    6.2198   -1.5245    0.0000 N   0  0  0  0  0  0  0  0  0  0  0  0
    7.7138   -1.6590    0.0000 N   0  0  0  0  0  0  0  0  0  0  0  0
    8.0476   -3.1214    0.0000 N   0  0  0  0  0  0  0  0  0  0  0  0
    6.7599   -3.8907    0.0000 N   0  0  0  0  0  0  0  0  0  0  0  0
    6.6254   -5.3847    0.0000 C   0  0  0  0  0  0  0  0  0  0  0  0
    7.7550   -6.3716    0.0000 C   0  0  0  0  0  0  0  0  0  0  0  0
    7.1655   -7.7509    0.0000 C   0  0  0  0  0  0  0  0  0  0  0  0
    5.6715   -7.6164    0.0000 C   0  0  0  0  0  0  0  0  0  0  0  0
    4.6846   -8.7460    0.0000 O   0  0  0  0  0  0  0  0  0  0  0  0
    3.2129   -8.4561    0.0000 C   0  0  0  0  0  0  0  0  0  0  0  0
    2.7281   -7.0366    0.0000 O   0  0  0  0  0  0  0  0  0  0  0  0
    2.2260   -9.5857    0.0000 N   0  0  0  0  0  0  0  0  0  0  0  0
    0.7543   -9.2959    0.0000 C   0  0  0  0  0  0  0  0  0  0  0  0
    0.2695   -7.8764    0.0000 N   0  0  0  0  0  0  0  0  0  0  0  0
   -1.2023   -7.5865    0.0000 N   0  0  0  0  0  0  0  0  0  0  0  0
   -2.1892   -8.7161    0.0000 N   0  0  0  0  0  0  0  0  0  0  0  0
   -1.7044  -10.1356    0.0000 N   0  0  0  0  0  0  0  0  0  0  0  0
   -0.2326  -10.4255    0.0000 N   0  0  0  0  0  0  0  0  0  0  0  0
    5.3378   -6.1540    0.0000 C   0  0  0  0  0  0  0  0  0  0  0  0
    3.9585   -5.5645    0.0000 O   0  0  0  0  0  0  0  0  0  0  0  0
    0.7500   -1.2990    0.0000 C   0  0  0  0  0  0  0  0  0  0  0  0
    1.5000    0.0000    0.0000 C   0  0  0  0  0  0  0  0  0  0  0  0
    0.7500    1.2990    0.0000 C   0  0  0  0  0  0  0  0  0  0  0  0
   -0.7500    1.2990    0.0000 C   0  0  0  0  0  0  0  0  0  0  0  0
   -1.5000    0.0000    0.0000 C   0  0  0  0  0  0  0  0  0  0  0  0
   -0.7500   -1.2990    0.0000 C   0  0  0  0  0  0  0  0  0  0  0  0
  1  2  1  0
  2  3  1  0
  3  4  2  0
  4  5  1  0
  5  6  1  0
  6  7  1  0
  7  8  2  0
  7  9  1  0
  9 10  1  0
 10 11  2  0
 11 12  1  0
 12 13  2  0
 13 14  1  0
 14 15  1  0
 15 16  2  0
 16 17  1  0
 17 18  2  0
 18 19  1  0
 19 20  1  0
 20 21  2  0
 20 22  1  0
 22 23  1  0
 23 24  2  0
 24 25  1  0
 25 26  2  0
 26 27  1  0
 27 28  1  0
 28 29  2  0
 29 30  1  0
 30 31  2  0
 31 32  1  0
 32 33  1  0
 33 34  2  0
 33 35  1  0
 35 36  1  0
 36 37  2  0
 37 38  1  0
 38 39  2  0
 39 40  1  0
 40 41  2  0
 31 42  1  0
 42 43  2  0
 19 44  1  0
 44 45  2  0
 45 46  1  0
 46 47  2  0
 47 48  1  0
 48 49  2  0
  6  2  1  0
 14 10  1  0
 49 15  1  0
 27 23  1  0
 42 28  1  0
 49 44  1  0
 41 36  1  0
M  END
>  <Title>  (1136) 
idABPTgen14

$$$$

     RDKit          2D

  8  8  0  0  0  0  0  0  0  0999 V2000
    5.0260   -1.2990    0.0000 C   0  0  0  0  0  0  0  0  0  0  0  0
    3.5260   -1.2990    0.0000 C   0  0  0  0  0  0  0  0  0  0  0  0
    2.7760    0.0000    0.0000 C   0  0  0  0  0  0  0  0  0  0  0  0
    1.2760    0.0000    0.0000 C   0  0  0  0  0  0  0  0  0  0  0  0
    0.3943    1.2135    0.0000 C   0  0  0  0  0  0  0  0  0  0  0  0
   -1.0323    0.7500    0.0000 C   0  0  0  0  0  0  0  0  0  0  0  0
   -1.0323   -0.7500    0.0000 C   0  0  0  0  0  0  0  0  0  0  0  0
    0.3943   -1.2135    0.0000 N   0  0  0  0  0  0  0  0  0  0  0  0
  1  2  2  0
  2  3  1  0
  3  4  1  0
  4  5  2  0
  5  6  1  0
  6  7  1  0
  7  8  2  0
  8  4  1  0
M  END
>  <Title>  (1137) 
idABPUgen14

$$$$

     RDKit          2D

  8  7  0  0  0  0  0  0  0  0999 V2000
    0.0000    0.0000    0.0000 C   0  0  0  0  0  0  0  0  0  0  0  0
    1.2990    0.7500    0.0000 C   0  0  0  0  0  0  0  0  0  0  0  0
    2.5981   -0.0000    0.0000 C   0  0  0  0  0  0  0  0  0  0  0  0
    3.8971    0.7500    0.0000 C   0  0  0  0  0  0  0  0  0  0  0  0
    5.1962   -0.0000    0.0000 O   0  0  0  0  0  0  0  0  0  0  0  0
    6.4952    0.7500    0.0000 C   0  0  0  0  0  0  0  0  0  0  0  0
    7.7942   -0.0000    0.0000 C   0  0  0  0  0  0  0  0  0  0  0  0
    9.0933    0.7500    0.0000 C   0  0  0  0  0  0  0  0  0  0  0  0
  1  2  1  0
  2  3  1  0
  3  4  2  3
  4  5  1  0
  5  6  1  0
  6  7  1  0
  7  8  1  0
M  END
>  <Title>  (1138) 
idABPVgen14

$$$$

     RDKit          2D

  4  3  0  0  0  0  0  0  0  0999 V2000
    0.0000    0.0000    0.0000 C   0  0  0  0  0  0  0  0  0  0  0  0
    1.2990    0.7500    0.0000 C   0  0  0  0  0  0  0  0  0  0  0  0
    2.5981   -0.0000    0.0000 C   0  0  0  0  0  0  0  0  0  0  0  0
    1.2990    2.2500    0.0000 C   0  0  0  0  0  0  0  0  0  0  0  0
  1  2  1  0
  2  3  1  0
  2  4  1  0
M  END
>  <Title>  (1139) 
idABPWgen14

$$$$

     RDKit          2D

 34 38  0  0  0  0  0  0  0  0999 V2000
   -3.7500   -6.4952    0.0000 O   0  0  0  0  0  0  0  0  0  0  0  0
   -3.0000   -5.1962    0.0000 C   0  0  0  0  0  0  0  0  0  0  0  0
   -3.7500   -3.8971    0.0000 N   0  0  0  0  0  0  0  0  0  0  0  0
   -5.2500   -3.8971    0.0000 C   0  0  0  0  0  0  0  0  0  0  0  0
   -6.1317   -5.1106    0.0000 N   0  0  0  0  0  0  0  0  0  0  0  0
   -7.5583   -4.6471    0.0000 N   0  0  0  0  0  0  0  0  0  0  0  0
   -7.5583   -3.1471    0.0000 N   0  0  0  0  0  0  0  0  0  0  0  0
   -6.1317   -2.6836    0.0000 N   0  0  0  0  0  0  0  0  0  0  0  0
   -5.6682   -1.2570    0.0000 N   0  0  0  0  0  0  0  0  0  0  0  0
   -4.2416   -0.7935    0.0000 C   0  0  0  0  0  0  0  0  0  0  0  0
   -4.2416    0.7065    0.0000 C   0  0  0  0  0  0  0  0  0  0  0  0
   -5.6682    1.1700    0.0000 N   0  0  0  0  0  0  0  0  0  0  0  0
   -6.1317    2.5966    0.0000 C   0  0  0  0  0  0  0  0  0  0  0  0
   -7.5989    2.9085    0.0000 O   0  0  0  0  0  0  0  0  0  0  0  0
   -5.1280    3.7113    0.0000 N   0  0  0  0  0  0  0  0  0  0  0  0
   -5.5915    5.1379    0.0000 C   0  0  0  0  0  0  0  0  0  0  0  0
   -7.0587    5.4498    0.0000 N   0  0  0  0  0  0  0  0  0  0  0  0
   -7.5223    6.8764    0.0000 N   0  0  0  0  0  0  0  0  0  0  0  0
   -6.5186    7.9911    0.0000 N   0  0  0  0  0  0  0  0  0  0  0  0
   -5.0513    7.6792    0.0000 N   0  0  0  0  0  0  0  0  0  0  0  0
   -4.5878    6.2527    0.0000 N   0  0  0  0  0  0  0  0  0  0  0  0
   -6.5498   -0.0435    0.0000 C   0  0  0  0  0  0  0  0  0  0  0  0
   -8.0498   -0.0435    0.0000 O   0  0  0  0  0  0  0  0  0  0  0  0
   -1.5000   -5.1962    0.0000 C   0  0  0  0  0  0  0  0  0  0  0  0
   -0.7500   -3.8971    0.0000 C   0  0  0  0  0  0  0  0  0  0  0  0
    0.7500   -3.8971    0.0000 C   0  0  0  0  0  0  0  0  0  0  0  0
    1.5000   -5.1962    0.0000 C   0  0  0  0  0  0  0  0  0  0  0  0
    3.0000   -5.1962    0.0000 O   0  0  0  0  0  0  0  0  0  0  0  0
    0.7500   -6.4952    0.0000 C   0  0  0  0  0  0  0  0  0  0  0  0
    1.5000   -7.7942    0.0000 C   0  0  0  0  0  0  0  0  0  0  0  0
    0.7500   -9.0933    0.0000 C   0  0  0  0  0  0  0  0  0  0  0  0
   -0.7500   -9.0933    0.0000 C   0  0  0  0  0  0  0  0  0  0  0  0
   -1.5000   -7.7942    0.0000 C   0  0  0  0  0  0  0  0  0  0  0  0
   -0.7500   -6.4952    0.0000 C   0  0  0  0  0  0  0  0  0  0  0  0
  1  2  2  0
  2  3  1  0
  3  4  1  0
  4  5  2  0
  5  6  1  0
  6  7  2  0
  7  8  1  0
  8  9  1  0
  9 10  1  0
 10 11  1  0
 11 12  1  0
 12 13  1  0
 13 14  2  0
 13 15  1  0
 15 16  1  0
 16 17  2  0
 17 18  1  0
 18 19  2  0
 19 20  1  0
 20 21  2  0
 12 22  1  0
 22 23  2  0
  2 24  1  0
 24 25  2  0
 25 26  1  0
 26 27  2  0
 27 28  1  0
 27 29  1  0
 29 30  2  0
 30 31  1  0
 31 32  2  0
 32 33  1  0
 33 34  2  0
  8  4  1  0
 22  9  1  0
 34 24  1  0
 21 16  1  0
 34 29  1  0
M  END
>  <Title>  (1140) 
idABPXgen14

$$$$

     RDKit          2D

  7  6  0  0  0  0  0  0  0  0999 V2000
    0.0000    0.0000    0.0000 C   0  0  0  0  0  0  0  0  0  0  0  0
    1.2990    0.7500    0.0000 C   0  0  0  0  0  0  0  0  0  0  0  0
    2.5981   -0.0000    0.0000 C   0  0  0  0  0  0  0  0  0  0  0  0
    3.8971    0.7500    0.0000 C   0  0  0  0  0  0  0  0  0  0  0  0
    5.1962   -0.0000    0.0000 C   0  0  0  0  0  0  0  0  0  0  0  0
    6.4952    0.7500    0.0000 C   0  0  0  0  0  0  0  0  0  0  0  0
    7.7942   -0.0000    0.0000 C   0  0  0  0  0  0  0  0  0  0  0  0
  1  2  2  0
  2  3  1  0
  3  4  1  0
  4  5  1  0
  5  6  1  0
  6  7  1  0
M  END
>  <Title>  (1141) 
idABPYgen14

$$$$

     RDKit          2D

 38 42  0  0  0  0  0  0  0  0999 V2000
   -3.1476   -2.1380    0.0000 C   0  0  0  0  0  0  0  0  0  0  0  0
   -1.6852   -2.4718    0.0000 C   0  0  0  0  0  0  0  0  0  0  0  0
   -1.3515   -3.9342    0.0000 C   0  0  0  0  0  0  0  0  0  0  0  0
   -0.0000   -4.5850    0.0000 C   0  0  0  0  0  0  0  0  0  0  0  0
    1.3515   -3.9342    0.0000 C   0  0  0  0  0  0  0  0  0  0  0  0
    1.6852   -2.4718    0.0000 C   0  0  0  0  0  0  0  0  0  0  0  0
    3.1476   -2.1380    0.0000 C   0  0  0  0  0  0  0  0  0  0  0  0
    3.5898   -0.7046    0.0000 O   0  0  0  0  0  0  0  0  0  0  0  0
    4.1679   -3.2376    0.0000 N   0  0  0  0  0  0  0  0  0  0  0  0
    5.6303   -2.9038    0.0000 C   0  0  0  0  0  0  0  0  0  0  0  0
    6.2198   -1.5245    0.0000 N   0  0  0  0  0  0  0  0  0  0  0  0
    7.7138   -1.6590    0.0000 N   0  0  0  0  0  0  0  0  0  0  0  0
    8.0476   -3.1214    0.0000 N   0  0  0  0  0  0  0  0  0  0  0  0
    6.7599   -3.8907    0.0000 N   0  0  0  0  0  0  0  0  0  0  0  0
    6.6254   -5.3847    0.0000 C   0  0  0  0  0  0  0  0  0  0  0  0
    7.7550   -6.3716    0.0000 C   0  0  0  0  0  0  0  0  0  0  0  0
    7.1655   -7.7509    0.0000 C   0  0  0  0  0  0  0  0  0  0  0  0
    5.6715   -7.6164    0.0000 C   0  0  0  0  0  0  0  0  0  0  0  0
    4.6846   -8.7460    0.0000 O   0  0  0  0  0  0  0  0  0  0  0  0
    3.2129   -8.4561    0.0000 C   0  0  0  0  0  0  0  0  0  0  0  0
    2.7281   -7.0366    0.0000 O   0  0  0  0  0  0  0  0  0  0  0  0
    2.2260   -9.5857    0.0000 N   0  0  0  0  0  0  0  0  0  0  0  0
    0.7543   -9.2959    0.0000 C   0  0  0  0  0  0  0  0  0  0  0  0
    0.2695   -7.8764    0.0000 N   0  0  0  0  0  0  0  0  0  0  0  0
   -1.2023   -7.5865    0.0000 N   0  0  0  0  0  0  0  0  0  0  0  0
   -2.1892   -8.7161    0.0000 N   0  0  0  0  0  0  0  0  0  0  0  0
   -1.7044  -10.1356    0.0000 N   0  0  0  0  0  0  0  0  0  0  0  0
   -0.2326  -10.4255    0.0000 N   0  0  0  0  0  0  0  0  0  0  0  0
    5.3378   -6.1540    0.0000 C   0  0  0  0  0  0  0  0  0  0  0  0
    3.9585   -5.5645    0.0000 O   0  0  0  0  0  0  0  0  0  0  0  0
    0.7500   -1.2990    0.0000 C   0  0  0  0  0  0  0  0  0  0  0  0
    1.5000    0.0000    0.0000 C   0  0  0  0  0  0  0  0  0  0  0  0
    0.7500    1.2990    0.0000 C   0  0  0  0  0  0  0  0  0  0  0  0
   -0.7500    1.2990    0.0000 C   0  0  0  0  0  0  0  0  0  0  0  0
   -1.5000    2.5981    0.0000 C   0  0  0  0  0  0  0  0  0  0  0  0
   -2.2500    3.8971    0.0000 N   0  0  0  0  0  0  0  0  0  0  0  0
   -1.5000    0.0000    0.0000 C   0  0  0  0  0  0  0  0  0  0  0  0
   -0.7500   -1.2990    0.0000 C   0  0  0  0  0  0  0  0  0  0  0  0
  1  2  1  0
  2  3  1  0
  3  4  1  0
  4  5  1  0
  5  6  1  0
  6  7  1  0
  7  8  2  0
  7  9  1  0
  9 10  1  0
 10 11  2  0
 11 12  1  0
 12 13  2  0
 13 14  1  0
 14 15  1  0
 15 16  2  0
 16 17  1  0
 17 18  2  0
 18 19  1  0
 19 20  1  0
 20 21  2  0
 20 22  1  0
 22 23  1  0
 23 24  2  0
 24 25  1  0
 25 26  2  0
 26 27  1  0
 27 28  2  0
 18 29  1  0
 29 30  2  0
  6 31  1  0
 31 32  2  0
 32 33  1  0
 33 34  2  0
 34 35  1  0
 35 36  3  0
 34 37  1  0
 37 38  2  0
 38  2  1  0
 14 10  1  0
 29 15  1  0
 38 31  1  0
 28 23  1  0
M  END
>  <Title>  (1142) 
idABPZgen14

$$$$

     RDKit          2D

 59 66  0  0  0  0  0  0  0  0999 V2000
   -2.6206  -12.5457    0.0000 C   0  0  0  0  0  0  0  0  0  0  0  0
   -1.1746  -12.1466    0.0000 C   0  0  0  0  0  0  0  0  0  0  0  0
   -0.1877  -13.2762    0.0000 C   0  0  0  0  0  0  0  0  0  0  0  0
    1.3108  -13.2089    0.0000 C   0  0  0  0  0  0  0  0  0  0  0  0
    2.1924  -11.9954    0.0000 C   0  0  0  0  0  0  0  0  0  0  0  0
    1.7934  -10.5494    0.0000 C   0  0  0  0  0  0  0  0  0  0  0  0
    0.4141   -9.9599    0.0000 C   0  0  0  0  0  0  0  0  0  0  0  0
   -0.9068  -10.6707    0.0000 C   0  0  0  0  0  0  0  0  0  0  0  0
   -2.1203   -9.7890    0.0000 C   0  0  0  0  0  0  0  0  0  0  0  0
   -3.4906  -10.3991    0.0000 O   0  0  0  0  0  0  0  0  0  0  0  0
   -1.9635   -8.2972    0.0000 N   0  0  0  0  0  0  0  0  0  0  0  0
   -3.1771   -7.4156    0.0000 C   0  0  0  0  0  0  0  0  0  0  0  0
   -4.6036   -7.8791    0.0000 N   0  0  0  0  0  0  0  0  0  0  0  0
   -5.4853   -6.6656    0.0000 N   0  0  0  0  0  0  0  0  0  0  0  0
   -4.6036   -5.4520    0.0000 N   0  0  0  0  0  0  0  0  0  0  0  0
   -3.1771   -5.9156    0.0000 N   0  0  0  0  0  0  0  0  0  0  0  0
   -1.9635   -5.0339    0.0000 C   0  0  0  0  0  0  0  0  0  0  0  0
   -0.7500   -5.9156    0.0000 C   0  0  0  0  0  0  0  0  0  0  0  0
    0.7500   -5.9156    0.0000 C   0  0  0  0  0  0  0  0  0  0  0  0
    1.9635   -5.0339    0.0000 C   0  0  0  0  0  0  0  0  0  0  0  0
    3.1771   -5.9156    0.0000 O   0  0  0  0  0  0  0  0  0  0  0  0
    3.0203   -7.4073    0.0000 C   0  0  0  0  0  0  0  0  0  0  0  0
    1.6499   -8.0175    0.0000 O   0  0  0  0  0  0  0  0  0  0  0  0
    4.2338   -8.2890    0.0000 N   0  0  0  0  0  0  0  0  0  0  0  0
    4.0770   -9.7808    0.0000 C   0  0  0  0  0  0  0  0  0  0  0  0
    2.7780  -10.5308    0.0000 N   0  0  0  0  0  0  0  0  0  0  0  0
    3.0898  -11.9980    0.0000 N   0  0  0  0  0  0  0  0  0  0  0  0
    4.5816  -12.1548    0.0000 N   0  0  0  0  0  0  0  0  0  0  0  0
    5.1917  -10.7845    0.0000 N   0  0  0  0  0  0  0  0  0  0  0  0
    6.6589  -10.4726    0.0000 N   0  0  0  0  0  0  0  0  0  0  0  0
    7.7736  -11.4763    0.0000 C   0  0  0  0  0  0  0  0  0  0  0  0
    9.0727  -10.7263    0.0000 C   0  0  0  0  0  0  0  0  0  0  0  0
    8.7608   -9.2591    0.0000 N   0  0  0  0  0  0  0  0  0  0  0  0
    9.7645   -8.1444    0.0000 C   0  0  0  0  0  0  0  0  0  0  0  0
   11.2317   -8.4563    0.0000 O   0  0  0  0  0  0  0  0  0  0  0  0
    9.3010   -6.7178    0.0000 N   0  0  0  0  0  0  0  0  0  0  0  0
   10.3047   -5.6031    0.0000 C   0  0  0  0  0  0  0  0  0  0  0  0
    9.8412   -4.1765    0.0000 N   0  0  0  0  0  0  0  0  0  0  0  0
   10.8449   -3.0618    0.0000 N   0  0  0  0  0  0  0  0  0  0  0  0
   12.3121   -3.3737    0.0000 N   0  0  0  0  0  0  0  0  0  0  0  0
   12.7756   -4.8002    0.0000 N   0  0  0  0  0  0  0  0  0  0  0  0
   11.7719   -5.9150    0.0000 N   0  0  0  0  0  0  0  0  0  0  0  0
    7.2690   -9.1023    0.0000 C   0  0  0  0  0  0  0  0  0  0  0  0
    6.5190   -7.8033    0.0000 O   0  0  0  0  0  0  0  0  0  0  0  0
    2.4271   -3.6073    0.0000 C   0  0  0  0  0  0  0  0  0  0  0  0
    3.9271   -3.6073    0.0000 O   0  0  0  0  0  0  0  0  0  0  0  0
    1.9635   -2.1807    0.0000 O   0  0  0  0  0  0  0  0  0  0  0  0
    0.7500   -1.2990    0.0000 C   0  0  0  0  0  0  0  0  0  0  0  0
    1.5000    0.0000    0.0000 C   0  0  0  0  0  0  0  0  0  0  0  0
    0.7500    1.2990    0.0000 C   0  0  0  0  0  0  0  0  0  0  0  0
   -0.7500    1.2990    0.0000 C   0  0  0  0  0  0  0  0  0  0  0  0
   -1.5000    0.0000    0.0000 C   0  0  0  0  0  0  0  0  0  0  0  0
   -0.7500   -1.2990    0.0000 C   0  0  0  0  0  0  0  0  0  0  0  0
   -1.9635   -2.1807    0.0000 C   0  0  0  0  0  0  0  0  0  0  0  0
   -2.9672   -1.0660    0.0000 C   0  0  0  0  0  0  0  0  0  0  0  0
   -4.4344   -1.3779    0.0000 C   0  0  0  0  0  0  0  0  0  0  0  0
   -4.8980   -2.8045    0.0000 C   0  0  0  0  0  0  0  0  0  0  0  0
   -3.8943   -3.9192    0.0000 C   0  0  0  0  0  0  0  0  0  0  0  0
   -2.4271   -3.6073    0.0000 C   0  0  0  0  0  0  0  0  0  0  0  0
  1  2  1  0
  2  3  1  0
  3  4  1  0
  4  5  1  0
  5  6  1  0
  6  7  1  0
  7  8  1  0
  8  9  1  0
  9 10  2  0
  9 11  1  0
 11 12  1  0
 12 13  2  0
 13 14  1  0
 14 15  2  0
 15 16  1  0
 16 17  1  0
 17 18  2  0
 18 19  1  0
 19 20  2  0
 20 21  1  0
 21 22  1  0
 22 23  2  0
 22 24  1  0
 24 25  1  0
 25 26  2  0
 26 27  1  0
 27 28  2  0
 28 29  1  0
 29 30  1  0
 30 31  1  0
 31 32  1  0
 32 33  1  0
 33 34  1  0
 34 35  2  0
 34 36  1  0
 36 37  1  0
 37 38  2  0
 38 39  1  0
 39 40  2  0
 40 41  1  0
 41 42  2  0
 33 43  1  0
 43 44  2  0
 20 45  1  0
 45 46  2  0
 45 47  1  0
 47 48  1  0
 48 49  2  0
 49 50  1  0
 50 51  2  0
 51 52  1  0
 52 53  2  0
 53 54  1  0
 54 55  2  0
 55 56  1  0
 56 57  2  0
 57 58  1  0
 58 59  2  0
  8  2  1  0
 16 12  1  0
 59 17  1  0
 29 25  1  0
 43 30  1  0
 53 48  1  0
 59 54  1  0
 42 37  1  0
M  END
>  <Title>  (1143) 
idABQAgen14

$$$$

     RDKit          2D

  5  4  0  0  0  0  0  0  0  0999 V2000
    0.0000    0.0000    0.0000 C   0  0  0  0  0  0  0  0  0  0  0  0
    1.2990    0.7500    0.0000 N   0  0  0  0  0  0  0  0  0  0  0  0
    2.5981   -0.0000    0.0000 C   0  0  0  0  0  0  0  0  0  0  0  0
    3.8971    0.7500    0.0000 O   0  0  0  0  0  0  0  0  0  0  0  0
    5.1962   -0.0000    0.0000 C   0  0  0  0  0  0  0  0  0  0  0  0
  1  2  1  0
  2  3  1  0
  3  4  1  0
  4  5  1  0
M  END
>  <Title>  (1144) 
idABQBgen14

$$$$

     RDKit          2D

  7  7  0  0  0  0  0  0  0  0999 V2000
    4.2760   -0.0000    0.0000 N   0  0  0  0  0  0  0  0  0  0  0  0
    2.7760    0.0000    0.0000 C   0  0  0  0  0  0  0  0  0  0  0  0
    1.2760    0.0000    0.0000 C   0  0  0  0  0  0  0  0  0  0  0  0
    0.3943    1.2135    0.0000 C   0  0  0  0  0  0  0  0  0  0  0  0
   -1.0323    0.7500    0.0000 C   0  0  0  0  0  0  0  0  0  0  0  0
   -1.0323   -0.7500    0.0000 C   0  0  0  0  0  0  0  0  0  0  0  0
    0.3943   -1.2135    0.0000 C   0  0  0  0  0  0  0  0  0  0  0  0
  1  2  3  0
  2  3  1  0
  3  4  2  0
  4  5  1  0
  5  6  2  0
  6  7  1  0
  7  3  1  0
M  END
>  <Title>  (1145) 
idABQCgen14

$$$$

     RDKit          2D

 19 20  0  0  0  0  0  0  0  0999 V2000
   -8.2500   -6.4952    0.0000 C   0  0  0  0  0  0  0  0  0  0  0  0
   -7.5000   -5.1962    0.0000 C   0  0  0  0  0  0  0  0  0  0  0  0
   -6.0000   -5.1962    0.0000 C   0  0  0  0  0  0  0  0  0  0  0  0
   -5.2500   -3.8971    0.0000 C   0  0  0  0  0  0  0  0  0  0  0  0
   -3.7500   -3.8971    0.0000 C   0  0  0  0  0  0  0  0  0  0  0  0
   -3.0000   -5.1962    0.0000 O   0  0  0  0  0  0  0  0  0  0  0  0
   -3.0000   -2.5981    0.0000 N   0  0  0  0  0  0  0  0  0  0  0  0
   -1.5000   -2.5981    0.0000 C   0  0  0  0  0  0  0  0  0  0  0  0
   -0.7500   -3.8971    0.0000 C   0  0  0  0  0  0  0  0  0  0  0  0
    0.7500   -3.8971    0.0000 C   0  0  0  0  0  0  0  0  0  0  0  0
    1.5000   -2.5981    0.0000 C   0  0  0  0  0  0  0  0  0  0  0  0
    3.0000   -2.5981    0.0000 C   0  0  0  0  0  0  0  0  0  0  0  0
    0.7500   -1.2990    0.0000 C   0  0  0  0  0  0  0  0  0  0  0  0
    1.5000    0.0000    0.0000 C   0  0  0  0  0  0  0  0  0  0  0  0
    0.7500    1.2990    0.0000 C   0  0  0  0  0  0  0  0  0  0  0  0
   -0.7500    1.2990    0.0000 C   0  0  0  0  0  0  0  0  0  0  0  0
   -1.5000    2.5981    0.0000 O   0  0  0  0  0  0  0  0  0  0  0  0
   -1.5000    0.0000    0.0000 C   0  0  0  0  0  0  0  0  0  0  0  0
   -0.7500   -1.2990    0.0000 C   0  0  0  0  0  0  0  0  0  0  0  0
  1  2  2  0
  2  3  1  0
  3  4  1  0
  4  5  1  0
  5  6  2  0
  5  7  1  0
  7  8  1  0
  8  9  2  0
  9 10  1  0
 10 11  2  0
 11 12  1  0
 11 13  1  0
 13 14  2  0
 14 15  1  0
 15 16  2  0
 16 17  1  0
 16 18  1  0
 18 19  2  0
 19  8  1  0
 19 13  1  0
M  END
>  <Title>  (1146) 
idABQDgen14

$$$$

     RDKit          2D

 34 34  0  0  0  0  0  0  0  0999 V2000
   43.5000    0.0000    0.0000 C   0  0  0  0  0  0  0  0  0  0  0  0
   42.0000    0.0000    0.0000 C   0  0  0  0  0  0  0  0  0  0  0  0
   40.5000    0.0000    0.0000 C   0  0  0  0  0  0  0  0  0  0  0  0
   39.0000    0.0000    0.0000 C   0  0  0  0  0  0  0  0  0  0  0  0
   37.5000    0.0000    0.0000 C   0  0  0  0  0  0  0  0  0  0  0  0
   36.0000    0.0000    0.0000 C   0  0  0  0  0  0  0  0  0  0  0  0
   34.5000    0.0000    0.0000 C   0  0  0  0  0  0  0  0  0  0  0  0
   33.0000    0.0000    0.0000 C   0  0  0  0  0  0  0  0  0  0  0  0
   31.5000    0.0000    0.0000 C   0  0  0  0  0  0  0  0  0  0  0  0
   30.0000    0.0000    0.0000 C   0  0  0  0  0  0  0  0  0  0  0  0
   28.5000    0.0000    0.0000 C   0  0  0  0  0  0  0  0  0  0  0  0
   27.0000    0.0000    0.0000 C   0  0  0  0  0  0  0  0  0  0  0  0
   25.5000    0.0000    0.0000 C   0  0  0  0  0  0  0  0  0  0  0  0
   24.0000    0.0000    0.0000 C   0  0  0  0  0  0  0  0  0  0  0  0
   22.5000    0.0000    0.0000 C   0  0  0  0  0  0  0  0  0  0  0  0
   21.0000    0.0000    0.0000 C   0  0  0  0  0  0  0  0  0  0  0  0
   19.5000    0.0000    0.0000 C   0  0  0  0  0  0  0  0  0  0  0  0
   18.0000    0.0000    0.0000 C   0  0  0  0  0  0  0  0  0  0  0  0
   16.5000    0.0000    0.0000 C   0  0  0  0  0  0  0  0  0  0  0  0
   15.0000    0.0000    0.0000 C   0  0  0  0  0  0  0  0  0  0  0  0
   13.5000    0.0000    0.0000 C   0  0  0  0  0  0  0  0  0  0  0  0
   12.0000    0.0000    0.0000 C   0  0  0  0  0  0  0  0  0  0  0  0
   10.5000    0.0000    0.0000 C   0  0  0  0  0  0  0  0  0  0  0  0
    9.0000    0.0000    0.0000 C   0  0  0  0  0  0  0  0  0  0  0  0
    7.5000    0.0000    0.0000 C   0  0  0  0  0  0  0  0  0  0  0  0
    6.0000    0.0000    0.0000 C   0  0  0  0  0  0  0  0  0  0  0  0
    4.5000    0.0000    0.0000 C   0  0  0  0  0  0  0  0  0  0  0  0
    3.0000    0.0000    0.0000 C   0  0  0  0  0  0  0  0  0  0  0  0
    1.5000    0.0000    0.0000 C   0  0  0  0  0  0  0  0  0  0  0  0
    0.7500   -1.2990    0.0000 C   0  0  0  0  0  0  0  0  0  0  0  0
   -0.7500   -1.2990    0.0000 C   0  0  0  0  0  0  0  0  0  0  0  0
   -1.5000    0.0000    0.0000 C   0  0  0  0  0  0  0  0  0  0  0  0
   -0.7500    1.2990    0.0000 C   0  0  0  0  0  0  0  0  0  0  0  0
    0.7500    1.2990    0.0000 C   0  0  0  0  0  0  0  0  0  0  0  0
  1  2  3  0
  2  3  1  0
  3  4  3  0
  4  5  1  0
  5  6  3  0
  6  7  1  0
  7  8  3  0
  8  9  1  0
  9 10  3  0
 10 11  1  0
 11 12  3  0
 12 13  1  0
 13 14  3  0
 14 15  1  0
 15 16  3  0
 16 17  1  0
 17 18  3  0
 18 19  1  0
 19 20  3  0
 20 21  1  0
 21 22  3  0
 22 23  1  0
 23 24  3  0
 24 25  1  0
 25 26  3  0
 26 27  1  0
 27 28  3  0
 28 29  1  0
 29 30  2  0
 30 31  1  0
 31 32  2  0
 32 33  1  0
 33 34  2  0
 34 29  1  0
M  END
>  <Title>  (1147) 
idABQEgen14

$$$$

     RDKit          2D

 11 12  0  0  0  0  0  0  0  0999 V2000
   -3.0000   -2.5981    0.0000 C   0  0  0  0  0  0  0  0  0  0  0  0
   -1.5000   -2.5981    0.0000 C   0  0  0  0  0  0  0  0  0  0  0  0
   -0.7500   -3.8971    0.0000 C   0  0  0  0  0  0  0  0  0  0  0  0
    0.7500   -3.8971    0.0000 C   0  0  0  0  0  0  0  0  0  0  0  0
    1.5000   -2.5981    0.0000 C   0  0  0  0  0  0  0  0  0  0  0  0
    0.7500   -1.2990    0.0000 C   0  0  0  0  0  0  0  0  0  0  0  0
    1.5000    0.0000    0.0000 C   0  0  0  0  0  0  0  0  0  0  0  0
    0.7500    1.2990    0.0000 C   0  0  0  0  0  0  0  0  0  0  0  0
   -0.7500    1.2990    0.0000 C   0  0  0  0  0  0  0  0  0  0  0  0
   -1.5000    0.0000    0.0000 N   0  0  0  0  0  0  0  0  0  0  0  0
   -0.7500   -1.2990    0.0000 C   0  0  0  0  0  0  0  0  0  0  0  0
  1  2  1  0
  2  3  1  0
  3  4  2  0
  4  5  1  0
  5  6  1  0
  6  7  2  0
  7  8  1  0
  8  9  2  0
  9 10  1  0
 10 11  2  0
 11  2  1  0
 11  6  1  0
M  END
>  <Title>  (1148) 
idABQFgen14

$$$$

     RDKit          2D

 13 12  0  0  0  0  0  0  0  0999 V2000
    0.0000    0.0000    0.0000 C   0  0  0  0  0  0  0  0  0  0  0  0
    1.2990    0.7500    0.0000 C   0  0  0  0  0  0  0  0  0  0  0  0
    2.5981   -0.0000    0.0000 C   0  0  0  0  0  0  0  0  0  0  0  0
    3.8971    0.7500    0.0000 C   0  0  0  0  0  0  0  0  0  0  0  0
    5.1962   -0.0000    0.0000 C   0  0  0  0  0  0  0  0  0  0  0  0
    6.4952    0.7500    0.0000 C   0  0  0  0  0  0  0  0  0  0  0  0
    7.7942   -0.0000    0.0000 C   0  0  0  0  0  0  0  0  0  0  0  0
    5.1962   -1.5000    0.0000 N   0  0  0  0  0  0  0  0  0  0  0  0
    6.4952   -2.2500    0.0000 C   0  0  0  0  0  0  0  0  0  0  0  0
    7.7942   -1.5000    0.0000 O   0  0  0  0  0  0  0  0  0  0  0  0
    6.4952   -3.7500    0.0000 C   0  0  0  0  0  0  0  0  0  0  0  0
    7.7942   -4.5000    0.0000 C   0  0  0  0  0  0  0  0  0  0  0  0
    7.7942   -6.0000    0.0000 C   0  0  0  0  0  0  0  0  0  0  0  0
  1  2  2  0
  2  3  1  0
  3  4  1  0
  4  5  1  0
  5  6  1  0
  6  7  1  0
  5  8  1  0
  8  9  1  0
  9 10  2  0
  9 11  1  0
 11 12  1  0
 12 13  1  0
M  END
>  <Title>  (1149) 
idABQGgen14

$$$$

     RDKit          2D

  7  7  0  0  0  0  0  0  0  0999 V2000
    3.0000    0.0000    0.0000 C   0  0  0  0  0  0  0  0  0  0  0  0
    1.5000    0.0000    0.0000 C   0  0  0  0  0  0  0  0  0  0  0  0
    0.7500   -1.2990    0.0000 C   0  0  0  0  0  0  0  0  0  0  0  0
   -0.7500   -1.2990    0.0000 C   0  0  0  0  0  0  0  0  0  0  0  0
   -1.5000    0.0000    0.0000 C   0  0  0  0  0  0  0  0  0  0  0  0
   -0.7500    1.2990    0.0000 N   0  0  0  0  0  0  0  0  0  0  0  0
    0.7500    1.2990    0.0000 N   0  0  0  0  0  0  0  0  0  0  0  0
  1  2  1  0
  2  3  1  0
  3  4  1  0
  4  5  1  0
  5  6  1  0
  6  7  2  0
  7  2  1  0
M  END
>  <Title>  (1150) 
idABQHgen14

$$$$

     RDKit          2D

 34 38  0  0  0  0  0  0  0  0999 V2000
   -3.0000   -2.5981    0.0000 C   0  0  0  0  0  0  0  0  0  0  0  0
   -1.5000   -2.5981    0.0000 C   0  0  0  0  0  0  0  0  0  0  0  0
   -0.7500   -3.8971    0.0000 C   0  0  0  0  0  0  0  0  0  0  0  0
    0.7500   -3.8971    0.0000 C   0  0  0  0  0  0  0  0  0  0  0  0
    1.5000   -2.5981    0.0000 C   0  0  0  0  0  0  0  0  0  0  0  0
    3.0000   -2.5981    0.0000 C   0  0  0  0  0  0  0  0  0  0  0  0
    3.7500   -1.2990    0.0000 O   0  0  0  0  0  0  0  0  0  0  0  0
    3.7500   -3.8971    0.0000 N   0  0  0  0  0  0  0  0  0  0  0  0
    5.2500   -3.8971    0.0000 C   0  0  0  0  0  0  0  0  0  0  0  0
    6.1317   -2.6836    0.0000 N   0  0  0  0  0  0  0  0  0  0  0  0
    7.5583   -3.1471    0.0000 N   0  0  0  0  0  0  0  0  0  0  0  0
    7.5583   -4.6471    0.0000 N   0  0  0  0  0  0  0  0  0  0  0  0
    6.1317   -5.1106    0.0000 N   0  0  0  0  0  0  0  0  0  0  0  0
    5.6682   -6.5372    0.0000 N   0  0  0  0  0  0  0  0  0  0  0  0
    6.5498   -7.7508    0.0000 C   0  0  0  0  0  0  0  0  0  0  0  0
    5.6682   -8.9643    0.0000 C   0  0  0  0  0  0  0  0  0  0  0  0
    4.2416   -8.5008    0.0000 C   0  0  0  0  0  0  0  0  0  0  0  0
    3.0280   -9.3824    0.0000 C   0  0  0  0  0  0  0  0  0  0  0  0
    3.1848  -10.8742    0.0000 O   0  0  0  0  0  0  0  0  0  0  0  0
    1.6577   -8.7723    0.0000 N   0  0  0  0  0  0  0  0  0  0  0  0
    0.4442   -9.6540    0.0000 C   0  0  0  0  0  0  0  0  0  0  0  0
   -0.9261   -9.0439    0.0000 N   0  0  0  0  0  0  0  0  0  0  0  0
   -2.1396   -9.9256    0.0000 N   0  0  0  0  0  0  0  0  0  0  0  0
   -1.9829  -11.4174    0.0000 N   0  0  0  0  0  0  0  0  0  0  0  0
   -0.6125  -12.0275    0.0000 N   0  0  0  0  0  0  0  0  0  0  0  0
    0.6010  -11.1458    0.0000 N   0  0  0  0  0  0  0  0  0  0  0  0
    4.2416   -7.0008    0.0000 C   0  0  0  0  0  0  0  0  0  0  0  0
    3.0280   -6.1191    0.0000 O   0  0  0  0  0  0  0  0  0  0  0  0
    0.7500   -1.2990    0.0000 C   0  0  0  0  0  0  0  0  0  0  0  0
    1.5000    0.0000    0.0000 C   0  0  0  0  0  0  0  0  0  0  0  0
    0.7500    1.2990    0.0000 C   0  0  0  0  0  0  0  0  0  0  0  0
   -0.7500    1.2990    0.0000 C   0  0  0  0  0  0  0  0  0  0  0  0
   -1.5000    0.0000    0.0000 C   0  0  0  0  0  0  0  0  0  0  0  0
   -0.7500   -1.2990    0.0000 C   0  0  0  0  0  0  0  0  0  0  0  0
  1  2  1  0
  2  3  1  0
  3  4  1  0
  4  5  1  0
  5  6  1  0
  6  7  2  0
  6  8  1  0
  8  9  1  0
  9 10  2  0
 10 11  1  0
 11 12  2  0
 12 13  1  0
 13 14  1  0
 14 15  1  0
 15 16  1  0
 16 17  1  0
 17 18  1  0
 18 19  2  0
 18 20  1  0
 20 21  1  0
 21 22  2  0
 22 23  1  0
 23 24  2  0
 24 25  1  0
 25 26  2  0
 17 27  1  0
 27 28  2  0
  5 29  1  0
 29 30  2  0
 30 31  1  0
 31 32  2  0
 32 33  1  0
 33 34  2  0
 34  2  1  0
 13  9  1  0
 27 14  1  0
 34 29  1  0
 26 21  1  0
M  END
>  <Title>  (1151) 
idABQIgen14

$$$$

     RDKit          2D

  8  7  0  0  0  0  0  0  0  0999 V2000
    0.0000    0.0000    0.0000 C   0  0  0  0  0  0  0  0  0  0  0  0
    1.2990    0.7500    0.0000 O   0  0  0  0  0  0  0  0  0  0  0  0
    2.5981   -0.0000    0.0000 C   0  0  0  0  0  0  0  0  0  0  0  0
    3.8971    0.7500    0.0000 C   0  0  0  0  0  0  0  0  0  0  0  0
    2.5981   -1.5000    0.0000 C   0  0  0  0  0  0  0  0  0  0  0  0
    3.8971   -2.2500    0.0000 C   0  0  0  0  0  0  0  0  0  0  0  0
    3.8971   -3.7500    0.0000 C   0  0  0  0  0  0  0  0  0  0  0  0
    5.1962   -1.5000    0.0000 C   0  0  0  0  0  0  0  0  0  0  0  0
  1  2  1  0
  2  3  1  0
  3  4  1  0
  3  5  1  0
  5  6  1  0
  6  7  1  0
  6  8  1  0
M  END
>  <Title>  (1152) 
idABQJgen14

$$$$

     RDKit          2D

 14 14  0  0  0  0  0  0  0  0999 V2000
    8.2500   -3.8971    0.0000 C   0  0  0  0  0  0  0  0  0  0  0  0
    7.5000   -2.5981    0.0000 C   0  0  0  0  0  0  0  0  0  0  0  0
    6.0000   -2.5981    0.0000 C   0  0  0  0  0  0  0  0  0  0  0  0
    5.2500   -1.2990    0.0000 C   0  0  0  0  0  0  0  0  0  0  0  0
    6.0000    0.0000    0.0000 O   0  0  0  0  0  0  0  0  0  0  0  0
    3.7500   -1.2990    0.0000 N   0  0  0  0  0  0  0  0  0  0  0  0
    3.0000    0.0000    0.0000 C   0  0  0  0  0  0  0  0  0  0  0  0
    1.5000    0.0000    0.0000 C   0  0  0  0  0  0  0  0  0  0  0  0
    0.7500   -1.2990    0.0000 C   0  0  0  0  0  0  0  0  0  0  0  0
   -0.7500   -1.2990    0.0000 C   0  0  0  0  0  0  0  0  0  0  0  0
   -1.5000    0.0000    0.0000 C   0  0  0  0  0  0  0  0  0  0  0  0
   -3.0000    0.0000    0.0000 F   0  0  0  0  0  0  0  0  0  0  0  0
   -0.7500    1.2990    0.0000 C   0  0  0  0  0  0  0  0  0  0  0  0
    0.7500    1.2990    0.0000 C   0  0  0  0  0  0  0  0  0  0  0  0
  1  2  1  0
  2  3  1  0
  3  4  1  0
  4  5  2  0
  4  6  1  0
  6  7  1  0
  7  8  1  0
  8  9  2  0
  9 10  1  0
 10 11  2  0
 11 12  1  0
 11 13  1  0
 13 14  2  0
 14  8  1  0
M  END
>  <Title>  (1153) 
idABQKgen14

$$$$

     RDKit          2D

  6  6  0  0  0  0  0  0  0  0999 V2000
    1.5000    0.0000    0.0000 C   0  0  0  0  0  0  0  0  0  0  0  0
    0.7500   -1.2990    0.0000 C   0  0  0  0  0  0  0  0  0  0  0  0
   -0.7500   -1.2990    0.0000 C   0  0  0  0  0  0  0  0  0  0  0  0
   -1.5000    0.0000    0.0000 C   0  0  0  0  0  0  0  0  0  0  0  0
   -0.7500    1.2990    0.0000 C   0  0  0  0  0  0  0  0  0  0  0  0
    0.7500    1.2990    0.0000 C   0  0  0  0  0  0  0  0  0  0  0  0
  1  2  2  0
  2  3  1  0
  3  4  1  0
  4  5  1  0
  5  6  1  0
  6  1  1  0
M  END
>  <Title>  (1154) 
idABQLgen14

$$$$

     RDKit          2D

 39 43  0  0  0  0  0  0  0  0999 V2000
   -3.1771   -1.2990    0.0000 C   0  0  0  0  0  0  0  0  0  0  0  0
   -1.9635   -2.1807    0.0000 C   0  0  0  0  0  0  0  0  0  0  0  0
   -2.4271   -3.6073    0.0000 C   0  0  0  0  0  0  0  0  0  0  0  0
   -1.9635   -5.0339    0.0000 C   0  0  0  0  0  0  0  0  0  0  0  0
   -0.7500   -5.9156    0.0000 C   0  0  0  0  0  0  0  0  0  0  0  0
    0.7500   -5.9156    0.0000 C   0  0  0  0  0  0  0  0  0  0  0  0
    1.9635   -5.0339    0.0000 C   0  0  0  0  0  0  0  0  0  0  0  0
    2.4271   -3.6073    0.0000 C   0  0  0  0  0  0  0  0  0  0  0  0
    1.9635   -2.1807    0.0000 C   0  0  0  0  0  0  0  0  0  0  0  0
    3.1771   -1.2990    0.0000 C   0  0  0  0  0  0  0  0  0  0  0  0
    3.0203    0.1927    0.0000 O   0  0  0  0  0  0  0  0  0  0  0  0
    4.5474   -1.9091    0.0000 N   0  0  0  0  0  0  0  0  0  0  0  0
    5.7609   -1.0275    0.0000 C   0  0  0  0  0  0  0  0  0  0  0  0
    5.7609    0.4725    0.0000 N   0  0  0  0  0  0  0  0  0  0  0  0
    7.1875    0.9361    0.0000 N   0  0  0  0  0  0  0  0  0  0  0  0
    8.0692   -0.2775    0.0000 N   0  0  0  0  0  0  0  0  0  0  0  0
    7.1875   -1.4910    0.0000 N   0  0  0  0  0  0  0  0  0  0  0  0
    7.6510   -2.9176    0.0000 C   0  0  0  0  0  0  0  0  0  0  0  0
    9.0776   -3.3811    0.0000 C   0  0  0  0  0  0  0  0  0  0  0  0
    9.0776   -4.8811    0.0000 C   0  0  0  0  0  0  0  0  0  0  0  0
    7.6510   -5.3446    0.0000 C   0  0  0  0  0  0  0  0  0  0  0  0
    7.1875   -6.7712    0.0000 O   0  0  0  0  0  0  0  0  0  0  0  0
    5.7203   -7.0831    0.0000 C   0  0  0  0  0  0  0  0  0  0  0  0
    4.7166   -5.9684    0.0000 O   0  0  0  0  0  0  0  0  0  0  0  0
    5.2567   -8.5097    0.0000 N   0  0  0  0  0  0  0  0  0  0  0  0
    3.7895   -8.8215    0.0000 C   0  0  0  0  0  0  0  0  0  0  0  0
    2.7858   -7.7068    0.0000 N   0  0  0  0  0  0  0  0  0  0  0  0
    1.3186   -8.0187    0.0000 N   0  0  0  0  0  0  0  0  0  0  0  0
    0.8551   -9.4453    0.0000 N   0  0  0  0  0  0  0  0  0  0  0  0
    1.8588  -10.5600    0.0000 N   0  0  0  0  0  0  0  0  0  0  0  0
    3.3260  -10.2481    0.0000 N   0  0  0  0  0  0  0  0  0  0  0  0
    6.7693   -4.1311    0.0000 C   0  0  0  0  0  0  0  0  0  0  0  0
    5.2693   -4.1311    0.0000 O   0  0  0  0  0  0  0  0  0  0  0  0
    0.7500   -1.2990    0.0000 C   0  0  0  0  0  0  0  0  0  0  0  0
    1.5000    0.0000    0.0000 C   0  0  0  0  0  0  0  0  0  0  0  0
    0.7500    1.2990    0.0000 C   0  0  0  0  0  0  0  0  0  0  0  0
   -0.7500    1.2990    0.0000 C   0  0  0  0  0  0  0  0  0  0  0  0
   -1.5000    0.0000    0.0000 C   0  0  0  0  0  0  0  0  0  0  0  0
   -0.7500   -1.2990    0.0000 C   0  0  0  0  0  0  0  0  0  0  0  0
  1  2  1  0
  2  3  1  0
  3  4  1  0
  4  5  1  0
  5  6  1  0
  6  7  1  0
  7  8  1  0
  8  9  1  0
  9 10  1  0
 10 11  2  0
 10 12  1  0
 12 13  1  0
 13 14  2  0
 14 15  1  0
 15 16  2  0
 16 17  1  0
 17 18  1  0
 18 19  2  0
 19 20  1  0
 20 21  2  0
 21 22  1  0
 22 23  1  0
 23 24  2  0
 23 25  1  0
 25 26  1  0
 26 27  2  0
 27 28  1  0
 28 29  2  0
 29 30  1  0
 30 31  2  0
 21 32  1  0
 32 33  2  0
  9 34  1  0
 34 35  2  0
 35 36  1  0
 36 37  2  0
 37 38  1  0
 38 39  2  0
 39  2  1  0
 17 13  1  0
 32 18  1  0
 39 34  1  0
 31 26  1  0
M  END
>  <Title>  (1155) 
idABQMgen14

$$$$

     RDKit          2D

 79 80  0  0  0  0  0  0  0  0999 V2000
   12.0132    0.0000    0.0000 C   0  0  0  0  0  0  0  0  0  0  0  0
   10.5132    0.0000    0.0000 C   0  0  0  0  0  0  0  0  0  0  0  0
   10.4061   -1.4962    0.0000 C   0  0  0  0  0  0  0  0  0  0  0  0
   10.0873   -2.9619    0.0000 C   0  0  0  0  0  0  0  0  0  0  0  0
    9.5631   -4.3673    0.0000 C   0  0  0  0  0  0  0  0  0  0  0  0
    8.8442   -5.6838    0.0000 C   0  0  0  0  0  0  0  0  0  0  0  0
    7.9453   -6.8847    0.0000 C   0  0  0  0  0  0  0  0  0  0  0  0
    6.8847   -7.9453    0.0000 C   0  0  0  0  0  0  0  0  0  0  0  0
    5.6838   -8.8442    0.0000 C   0  0  0  0  0  0  0  0  0  0  0  0
    4.3673   -9.5631    0.0000 C   0  0  0  0  0  0  0  0  0  0  0  0
    2.9619  -10.0873    0.0000 C   0  0  0  0  0  0  0  0  0  0  0  0
    1.4962  -10.4061    0.0000 C   0  0  0  0  0  0  0  0  0  0  0  0
   -0.0000  -10.5132    0.0000 C   0  0  0  0  0  0  0  0  0  0  0  0
   -1.4962  -10.4061    0.0000 C   0  0  0  0  0  0  0  0  0  0  0  0
   -2.9619  -10.0873    0.0000 C   0  0  0  0  0  0  0  0  0  0  0  0
   -4.3673   -9.5631    0.0000 C   0  0  0  0  0  0  0  0  0  0  0  0
   -5.6838   -8.8442    0.0000 C   0  0  0  0  0  0  0  0  0  0  0  0
   -6.8847   -7.9453    0.0000 C   0  0  0  0  0  0  0  0  0  0  0  0
   -7.9453   -6.8847    0.0000 C   0  0  0  0  0  0  0  0  0  0  0  0
   -8.8442   -5.6838    0.0000 C   0  0  0  0  0  0  0  0  0  0  0  0
   -9.5631   -4.3673    0.0000 C   0  0  0  0  0  0  0  0  0  0  0  0
  -10.0873   -2.9619    0.0000 C   0  0  0  0  0  0  0  0  0  0  0  0
  -10.4061   -1.4962    0.0000 C   0  0  0  0  0  0  0  0  0  0  0  0
  -10.5132    0.0000    0.0000 C   0  0  0  0  0  0  0  0  0  0  0  0
  -10.4061    1.4962    0.0000 C   0  0  0  0  0  0  0  0  0  0  0  0
  -10.0873    2.9619    0.0000 C   0  0  0  0  0  0  0  0  0  0  0  0
   -9.5631    4.3673    0.0000 C   0  0  0  0  0  0  0  0  0  0  0  0
   -8.8442    5.6838    0.0000 C   0  0  0  0  0  0  0  0  0  0  0  0
   -7.9453    6.8847    0.0000 C   0  0  0  0  0  0  0  0  0  0  0  0
   -6.8847    7.9453    0.0000 C   0  0  0  0  0  0  0  0  0  0  0  0
   -5.6838    8.8442    0.0000 C   0  0  0  0  0  0  0  0  0  0  0  0
   -4.3673    9.5631    0.0000 C   0  0  0  0  0  0  0  0  0  0  0  0
   -2.9619   10.0873    0.0000 C   0  0  0  0  0  0  0  0  0  0  0  0
   -1.4962   10.4061    0.0000 C   0  0  0  0  0  0  0  0  0  0  0  0
    0.0000   10.5132    0.0000 C   0  0  0  0  0  0  0  0  0  0  0  0
    1.4962   10.4061    0.0000 C   0  0  0  0  0  0  0  0  0  0  0  0
    2.9619   10.0873    0.0000 C   0  0  0  0  0  0  0  0  0  0  0  0
    4.3673    9.5631    0.0000 C   0  0  0  0  0  0  0  0  0  0  0  0
    5.6838    8.8442    0.0000 C   0  0  0  0  0  0  0  0  0  0  0  0
    6.8847    7.9453    0.0000 C   0  0  0  0  0  0  0  0  0  0  0  0
    7.9453    6.8847    0.0000 C   0  0  0  0  0  0  0  0  0  0  0  0
    8.8442    5.6838    0.0000 C   0  0  0  0  0  0  0  0  0  0  0  0
    9.5631    4.3673    0.0000 C   0  0  0  0  0  0  0  0  0  0  0  0
   10.0873    2.9619    0.0000 C   0  0  0  0  0  0  0  0  0  0  0  0
   10.4061    1.4962    0.0000 C   0  0  0  0  0  0  0  0  0  0  0  0
   11.8909    1.7097    0.0000 C   0  0  0  0  0  0  0  0  0  0  0  0
   12.4484    3.1022    0.0000 C   0  0  0  0  0  0  0  0  0  0  0  0
   13.9331    3.3157    0.0000 C   0  0  0  0  0  0  0  0  0  0  0  0
   14.4906    4.7082    0.0000 C   0  0  0  0  0  0  0  0  0  0  0  0
   15.9753    4.9217    0.0000 C   0  0  0  0  0  0  0  0  0  0  0  0
   16.5328    6.3143    0.0000 C   0  0  0  0  0  0  0  0  0  0  0  0
   18.0176    6.5277    0.0000 C   0  0  0  0  0  0  0  0  0  0  0  0
   18.5751    7.9203    0.0000 C   0  0  0  0  0  0  0  0  0  0  0  0
   20.0598    8.1337    0.0000 C   0  0  0  0  0  0  0  0  0  0  0  0
   20.6173    9.5263    0.0000 C   0  0  0  0  0  0  0  0  0  0  0  0
   22.1020    9.7398    0.0000 C   0  0  0  0  0  0  0  0  0  0  0  0
   22.6595   11.1323    0.0000 C   0  0  0  0  0  0  0  0  0  0  0  0
   24.1442   11.3458    0.0000 C   0  0  0  0  0  0  0  0  0  0  0  0
   24.7017   12.7383    0.0000 C   0  0  0  0  0  0  0  0  0  0  0  0
   26.1865   12.9518    0.0000 C   0  0  0  0  0  0  0  0  0  0  0  0
   26.7440   14.3444    0.0000 C   0  0  0  0  0  0  0  0  0  0  0  0
   28.2287   14.5578    0.0000 C   0  0  0  0  0  0  0  0  0  0  0  0
   28.7862   15.9504    0.0000 C   0  0  0  0  0  0  0  0  0  0  0  0
   30.2709   16.1639    0.0000 C   0  0  0  0  0  0  0  0  0  0  0  0
   30.8284   17.5564    0.0000 C   0  0  0  0  0  0  0  0  0  0  0  0
   32.3131   17.7699    0.0000 C   0  0  0  0  0  0  0  0  0  0  0  0
   32.8706   19.1624    0.0000 C   0  0  0  0  0  0  0  0  0  0  0  0
   34.3554   19.3759    0.0000 C   0  0  0  0  0  0  0  0  0  0  0  0
   34.9129   20.7685    0.0000 C   0  0  0  0  0  0  0  0  0  0  0  0
   36.3976   20.9819    0.0000 C   0  0  0  0  0  0  0  0  0  0  0  0
   36.9551   22.3745    0.0000 C   0  0  0  0  0  0  0  0  0  0  0  0
   38.4398   22.5880    0.0000 C   0  0  0  0  0  0  0  0  0  0  0  0
   38.9973   23.9805    0.0000 C   0  0  0  0  0  0  0  0  0  0  0  0
   40.4820   24.1940    0.0000 C   0  0  0  0  0  0  0  0  0  0  0  0
   41.0395   25.5865    0.0000 C   0  0  0  0  0  0  0  0  0  0  0  0
   40.2406   26.8561    0.0000 C   0  0  0  0  0  0  0  0  0  0  0  0
   41.2012   28.0082    0.0000 C   0  0  0  0  0  0  0  0  0  0  0  0
   42.5937   27.4507    0.0000 C   0  0  0  0  0  0  0  0  0  0  0  0
   42.4938   25.9540    0.0000 C   0  0  0  0  0  0  0  0  0  0  0  0
  1  2  1  0
  2  3  1  0
  3  4  1  0
  4  5  1  0
  5  6  1  0
  6  7  1  0
  7  8  1  0
  8  9  1  0
  9 10  1  0
 10 11  1  0
 11 12  1  0
 12 13  1  0
 13 14  1  0
 14 15  1  0
 15 16  1  0
 16 17  1  0
 17 18  1  0
 18 19  1  0
 19 20  1  0
 20 21  1  0
 21 22  1  0
 22 23  1  0
 23 24  1  0
 24 25  1  0
 25 26  1  0
 26 27  1  0
 27 28  1  0
 28 29  1  0
 29 30  1  0
 30 31  1  0
 31 32  1  0
 32 33  1  0
 33 34  1  0
 34 35  1  0
 35 36  1  0
 36 37  1  0
 37 38  1  0
 38 39  1  0
 39 40  1  0
 40 41  1  0
 41 42  1  0
 42 43  1  0
 43 44  1  0
 44 45  1  0
 45 46  1  0
 46 47  2  3
 47 48  1  0
 48 49  2  3
 49 50  1  0
 50 51  2  3
 51 52  1  0
 52 53  2  3
 53 54  1  0
 54 55  2  3
 55 56  1  0
 56 57  2  3
 57 58  1  0
 58 59  2  3
 59 60  1  0
 60 61  2  3
 61 62  1  0
 62 63  2  3
 63 64  1  0
 64 65  2  3
 65 66  1  0
 66 67  2  3
 67 68  1  0
 68 69  2  3
 69 70  1  0
 70 71  2  3
 71 72  1  0
 72 73  2  3
 73 74  1  0
 74 75  2  3
 75 76  1  0
 76 77  2  0
 77 78  1  0
 78 79  2  0
 45  2  1  0
 79 75  1  0
M  END
>  <Title>  (1156) 
idABQNgen14

$$$$

     RDKit          2D

  9  9  0  0  0  0  0  0  0  0999 V2000
    5.0260   -1.2990    0.0000 C   0  0  0  0  0  0  0  0  0  0  0  0
    3.5260   -1.2990    0.0000 C   0  0  0  0  0  0  0  0  0  0  0  0
    2.7760   -2.5981    0.0000 O   0  0  0  0  0  0  0  0  0  0  0  0
    2.7760    0.0000    0.0000 N   0  0  0  0  0  0  0  0  0  0  0  0
    1.2760    0.0000    0.0000 C   0  0  0  0  0  0  0  0  0  0  0  0
    0.3943    1.2135    0.0000 C   0  0  0  0  0  0  0  0  0  0  0  0
   -1.0323    0.7500    0.0000 S   0  0  0  0  0  0  0  0  0  0  0  0
   -1.0323   -0.7500    0.0000 C   0  0  0  0  0  0  0  0  0  0  0  0
    0.3943   -1.2135    0.0000 C   0  0  0  0  0  0  0  0  0  0  0  0
  1  2  1  0
  2  3  2  0
  2  4  1  0
  4  5  1  0
  5  6  2  0
  6  7  1  0
  7  8  1  0
  8  9  2  0
  9  5  1  0
M  END
>  <Title>  (1157) 
idABQOgen14

$$$$

     RDKit          2D

 36 40  0  0  0  0  0  0  0  0999 V2000
   -3.1476   -2.1380    0.0000 C   0  0  0  0  0  0  0  0  0  0  0  0
   -1.6852   -2.4718    0.0000 C   0  0  0  0  0  0  0  0  0  0  0  0
   -1.3515   -3.9342    0.0000 C   0  0  0  0  0  0  0  0  0  0  0  0
   -0.0000   -4.5850    0.0000 C   0  0  0  0  0  0  0  0  0  0  0  0
    1.3515   -3.9342    0.0000 C   0  0  0  0  0  0  0  0  0  0  0  0
    1.6852   -2.4718    0.0000 C   0  0  0  0  0  0  0  0  0  0  0  0
    3.1476   -2.1380    0.0000 C   0  0  0  0  0  0  0  0  0  0  0  0
    3.5898   -0.7046    0.0000 O   0  0  0  0  0  0  0  0  0  0  0  0
    4.1679   -3.2376    0.0000 N   0  0  0  0  0  0  0  0  0  0  0  0
    5.6303   -2.9038    0.0000 C   0  0  0  0  0  0  0  0  0  0  0  0
    6.2198   -1.5245    0.0000 N   0  0  0  0  0  0  0  0  0  0  0  0
    7.7138   -1.6590    0.0000 N   0  0  0  0  0  0  0  0  0  0  0  0
    8.0476   -3.1214    0.0000 N   0  0  0  0  0  0  0  0  0  0  0  0
    6.7599   -3.8907    0.0000 N   0  0  0  0  0  0  0  0  0  0  0  0
    6.6254   -5.3847    0.0000 C   0  0  0  0  0  0  0  0  0  0  0  0
    7.7550   -6.3716    0.0000 C   0  0  0  0  0  0  0  0  0  0  0  0
    7.1655   -7.7509    0.0000 C   0  0  0  0  0  0  0  0  0  0  0  0
    5.6715   -7.6164    0.0000 C   0  0  0  0  0  0  0  0  0  0  0  0
    4.6846   -8.7460    0.0000 O   0  0  0  0  0  0  0  0  0  0  0  0
    3.2129   -8.4561    0.0000 C   0  0  0  0  0  0  0  0  0  0  0  0
    2.7281   -7.0366    0.0000 O   0  0  0  0  0  0  0  0  0  0  0  0
    2.2260   -9.5857    0.0000 N   0  0  0  0  0  0  0  0  0  0  0  0
    0.7543   -9.2959    0.0000 C   0  0  0  0  0  0  0  0  0  0  0  0
    0.2695   -7.8764    0.0000 N   0  0  0  0  0  0  0  0  0  0  0  0
   -1.2023   -7.5865    0.0000 N   0  0  0  0  0  0  0  0  0  0  0  0
   -2.1892   -8.7161    0.0000 N   0  0  0  0  0  0  0  0  0  0  0  0
   -1.7044  -10.1356    0.0000 N   0  0  0  0  0  0  0  0  0  0  0  0
   -0.2326  -10.4255    0.0000 N   0  0  0  0  0  0  0  0  0  0  0  0
    5.3378   -6.1540    0.0000 C   0  0  0  0  0  0  0  0  0  0  0  0
    3.9585   -5.5645    0.0000 O   0  0  0  0  0  0  0  0  0  0  0  0
    0.7500   -1.2990    0.0000 C   0  0  0  0  0  0  0  0  0  0  0  0
    1.5000    0.0000    0.0000 C   0  0  0  0  0  0  0  0  0  0  0  0
    0.7500    1.2990    0.0000 C   0  0  0  0  0  0  0  0  0  0  0  0
   -0.7500    1.2990    0.0000 C   0  0  0  0  0  0  0  0  0  0  0  0
   -1.5000    0.0000    0.0000 C   0  0  0  0  0  0  0  0  0  0  0  0
   -0.7500   -1.2990    0.0000 C   0  0  0  0  0  0  0  0  0  0  0  0
  1  2  1  0
  2  3  1  0
  3  4  2  0
  4  5  1  0
  5  6  1  0
  6  7  1  0
  7  8  2  0
  7  9  1  0
  9 10  1  0
 10 11  2  0
 11 12  1  0
 12 13  2  0
 13 14  1  0
 14 15  1  0
 15 16  2  0
 16 17  1  0
 17 18  2  0
 18 19  1  0
 19 20  1  0
 20 21  2  0
 20 22  1  0
 22 23  1  0
 23 24  2  0
 24 25  1  0
 25 26  2  0
 26 27  1  0
 27 28  2  0
 18 29  1  0
 29 30  2  0
  6 31  1  0
 31 32  2  0
 32 33  1  0
 33 34  2  0
 34 35  1  0
 35 36  2  0
 36  2  1  0
 14 10  1  0
 29 15  1  0
 36 31  1  0
 28 23  1  0
M  END
>  <Title>  (1158) 
idABQPgen14

$$$$

     RDKit          2D

 14 13  0  0  0  0  0  0  0  0999 V2000
    0.0000    0.0000    0.0000 C   0  0  0  0  0  0  0  0  0  0  0  0
    1.2990    0.7500    0.0000 C   0  0  0  0  0  0  0  0  0  0  0  0
    2.5981   -0.0000    0.0000 C   0  0  0  0  0  0  0  0  0  0  0  0
    1.2990    2.2500    0.0000 C   0  0  0  0  0  0  0  0  0  0  0  0
    2.5981    3.0000    0.0000 C   0  0  0  0  0  0  0  0  0  0  0  0
    2.5981    4.5000    0.0000 C   0  0  0  0  0  0  0  0  0  0  0  0
    3.8971    2.2500    0.0000 N   0  0  0  0  0  0  0  0  0  0  0  0
    5.1962    3.0000    0.0000 C   0  0  0  0  0  0  0  0  0  0  0  0
    5.1962    4.5000    0.0000 O   0  0  0  0  0  0  0  0  0  0  0  0
    6.4952    2.2500    0.0000 C   0  0  0  0  0  0  0  0  0  0  0  0
    7.7942    3.0000    0.0000 C   0  0  0  0  0  0  0  0  0  0  0  0
    9.0933    2.2500    0.0000 C   0  0  0  0  0  0  0  0  0  0  0  0
   10.3923    3.0000    0.0000 N   0  0  0  0  0  0  0  0  0  0  0  0
   11.6913    2.2500    0.0000 O   0  0  0  0  0  0  0  0  0  0  0  0
  1  2  1  0
  2  3  1  0
  2  4  1  0
  4  5  1  0
  5  6  1  0
  5  7  1  0
  7  8  1  0
  8  9  2  0
  8 10  1  0
 10 11  1  0
 11 12  1  0
 12 13  2  3
 13 14  1  0
M  END
>  <Title>  (1159) 
idABQQgen14

$$$$

     RDKit          2D

  6  6  0  0  0  0  0  0  0  0999 V2000
    2.7760    0.0000    0.0000 N   0  0  0  0  0  0  0  0  0  0  0  0
    1.2760    0.0000    0.0000 C   0  0  0  0  0  0  0  0  0  0  0  0
    0.3943    1.2135    0.0000 C   0  0  0  0  0  0  0  0  0  0  0  0
   -1.0323    0.7500    0.0000 C   0  0  0  0  0  0  0  0  0  0  0  0
   -1.0323   -0.7500    0.0000 C   0  0  0  0  0  0  0  0  0  0  0  0
    0.3943   -1.2135    0.0000 C   0  0  0  0  0  0  0  0  0  0  0  0
  1  2  1  0
  2  3  2  0
  3  4  1  0
  4  5  1  0
  5  6  2  0
  6  2  1  0
M  END
>  <Title>  (1160) 
idABQRgen14

$$$$

     RDKit          2D

 36 40  0  0  0  0  0  0  0  0999 V2000
   -3.1476   -2.1380    0.0000 C   0  0  0  0  0  0  0  0  0  0  0  0
   -1.6852   -2.4718    0.0000 C   0  0  0  0  0  0  0  0  0  0  0  0
   -1.3515   -3.9342    0.0000 C   0  0  0  0  0  0  0  0  0  0  0  0
   -0.0000   -4.5850    0.0000 C   0  0  0  0  0  0  0  0  0  0  0  0
    1.3515   -3.9342    0.0000 C   0  0  0  0  0  0  0  0  0  0  0  0
    1.6852   -2.4718    0.0000 C   0  0  0  0  0  0  0  0  0  0  0  0
    3.1476   -2.1380    0.0000 C   0  0  0  0  0  0  0  0  0  0  0  0
    3.5898   -0.7046    0.0000 O   0  0  0  0  0  0  0  0  0  0  0  0
    4.1679   -3.2376    0.0000 N   0  0  0  0  0  0  0  0  0  0  0  0
    5.6303   -2.9038    0.0000 C   0  0  0  0  0  0  0  0  0  0  0  0
    6.2198   -1.5245    0.0000 N   0  0  0  0  0  0  0  0  0  0  0  0
    7.7138   -1.6590    0.0000 N   0  0  0  0  0  0  0  0  0  0  0  0
    8.0476   -3.1214    0.0000 N   0  0  0  0  0  0  0  0  0  0  0  0
    6.7599   -3.8907    0.0000 N   0  0  0  0  0  0  0  0  0  0  0  0
    6.6254   -5.3847    0.0000 C   0  0  0  0  0  0  0  0  0  0  0  0
    7.7550   -6.3716    0.0000 C   0  0  0  0  0  0  0  0  0  0  0  0
    7.1655   -7.7509    0.0000 C   0  0  0  0  0  0  0  0  0  0  0  0
    5.6715   -7.6164    0.0000 C   0  0  0  0  0  0  0  0  0  0  0  0
    4.6846   -8.7460    0.0000 O   0  0  0  0  0  0  0  0  0  0  0  0
    3.2129   -8.4561    0.0000 C   0  0  0  0  0  0  0  0  0  0  0  0
    2.7281   -7.0366    0.0000 O   0  0  0  0  0  0  0  0  0  0  0  0
    2.2260   -9.5857    0.0000 N   0  0  0  0  0  0  0  0  0  0  0  0
    0.7543   -9.2959    0.0000 C   0  0  0  0  0  0  0  0  0  0  0  0
    0.2695   -7.8764    0.0000 N   0  0  0  0  0  0  0  0  0  0  0  0
   -1.2023   -7.5865    0.0000 N   0  0  0  0  0  0  0  0  0  0  0  0
   -2.1892   -8.7161    0.0000 N   0  0  0  0  0  0  0  0  0  0  0  0
   -1.7044  -10.1356    0.0000 N   0  0  0  0  0  0  0  0  0  0  0  0
   -0.2326  -10.4255    0.0000 N   0  0  0  0  0  0  0  0  0  0  0  0
    5.3378   -6.1540    0.0000 C   0  0  0  0  0  0  0  0  0  0  0  0
    3.9585   -5.5645    0.0000 O   0  0  0  0  0  0  0  0  0  0  0  0
    0.7500   -1.2990    0.0000 C   0  0  0  0  0  0  0  0  0  0  0  0
    1.5000    0.0000    0.0000 C   0  0  0  0  0  0  0  0  0  0  0  0
    0.7500    1.2990    0.0000 C   0  0  0  0  0  0  0  0  0  0  0  0
   -0.7500    1.2990    0.0000 C   0  0  0  0  0  0  0  0  0  0  0  0
   -1.5000    0.0000    0.0000 C   0  0  0  0  0  0  0  0  0  0  0  0
   -0.7500   -1.2990    0.0000 C   0  0  0  0  0  0  0  0  0  0  0  0
  1  2  1  0
  2  3  2  0
  3  4  1  0
  4  5  1  0
  5  6  2  0
  6  7  1  0
  7  8  2  0
  7  9  1  0
  9 10  1  0
 10 11  2  0
 11 12  1  0
 12 13  2  0
 13 14  1  0
 14 15  1  0
 15 16  2  0
 16 17  1  0
 17 18  2  0
 18 19  1  0
 19 20  1  0
 20 21  2  0
 20 22  1  0
 22 23  1  0
 23 24  2  0
 24 25  1  0
 25 26  2  0
 26 27  1  0
 27 28  2  0
 18 29  1  0
 29 30  2  0
  6 31  1  0
 31 32  2  0
 32 33  1  0
 33 34  2  0
 34 35  1  0
 35 36  2  0
 36  2  1  0
 14 10  1  0
 29 15  1  0
 36 31  1  0
 28 23  1  0
M  END
>  <Title>  (1161) 
idABQSgen14

$$$$

     RDKit          2D

 47 53  0  0  0  0  0  0  0  0999 V2000
   -0.0000   -8.0154    0.0000 C   0  0  0  0  0  0  0  0  0  0  0  0
   -0.0000   -6.5154    0.0000 C   0  0  0  0  0  0  0  0  0  0  0  0
    1.4392   -6.0928    0.0000 C   0  0  0  0  0  0  0  0  0  0  0  0
    2.4215   -4.9592    0.0000 C   0  0  0  0  0  0  0  0  0  0  0  0
    2.6350   -3.4744    0.0000 C   0  0  0  0  0  0  0  0  0  0  0  0
    2.0119   -2.1100    0.0000 C   0  0  0  0  0  0  0  0  0  0  0  0
    3.1455   -1.1277    0.0000 C   0  0  0  0  0  0  0  0  0  0  0  0
    2.8616    0.3452    0.0000 O   0  0  0  0  0  0  0  0  0  0  0  0
    4.5630   -1.6183    0.0000 N   0  0  0  0  0  0  0  0  0  0  0  0
    5.6966   -0.6360    0.0000 C   0  0  0  0  0  0  0  0  0  0  0  0
    5.5683    0.8585    0.0000 N   0  0  0  0  0  0  0  0  0  0  0  0
    6.9500    1.4424    0.0000 N   0  0  0  0  0  0  0  0  0  0  0  0
    7.9322    0.3088    0.0000 N   0  0  0  0  0  0  0  0  0  0  0  0
    7.1576   -0.9758    0.0000 N   0  0  0  0  0  0  0  0  0  0  0  0
    7.7416   -2.3574    0.0000 C   0  0  0  0  0  0  0  0  0  0  0  0
    9.2026   -2.6972    0.0000 C   0  0  0  0  0  0  0  0  0  0  0  0
    9.3309   -4.1917    0.0000 C   0  0  0  0  0  0  0  0  0  0  0  0
    7.9492   -4.7756    0.0000 C   0  0  0  0  0  0  0  0  0  0  0  0
    7.6095   -6.2366    0.0000 C   0  0  0  0  0  0  0  0  0  0  0  0
    8.7049   -7.2614    0.0000 O   0  0  0  0  0  0  0  0  0  0  0  0
    6.1744   -6.6729    0.0000 N   0  0  0  0  0  0  0  0  0  0  0  0
    5.8346   -8.1339    0.0000 C   0  0  0  0  0  0  0  0  0  0  0  0
    4.3995   -8.5702    0.0000 N   0  0  0  0  0  0  0  0  0  0  0  0
    4.0597  -10.0312    0.0000 N   0  0  0  0  0  0  0  0  0  0  0  0
    5.1551  -11.0560    0.0000 N   0  0  0  0  0  0  0  0  0  0  0  0
    6.5903  -10.6197    0.0000 N   0  0  0  0  0  0  0  0  0  0  0  0
    6.9300   -9.1587    0.0000 N   0  0  0  0  0  0  0  0  0  0  0  0
    6.9670   -3.6420    0.0000 C   0  0  0  0  0  0  0  0  0  0  0  0
    5.4725   -3.7703    0.0000 O   0  0  0  0  0  0  0  0  0  0  0  0
    0.7500   -1.2990    0.0000 C   0  0  0  0  0  0  0  0  0  0  0  0
    1.5000    0.0000    0.0000 C   0  0  0  0  0  0  0  0  0  0  0  0
    0.7500    1.2990    0.0000 C   0  0  0  0  0  0  0  0  0  0  0  0
   -0.7500    1.2990    0.0000 C   0  0  0  0  0  0  0  0  0  0  0  0
   -1.5000    0.0000    0.0000 C   0  0  0  0  0  0  0  0  0  0  0  0
   -0.7500   -1.2990    0.0000 C   0  0  0  0  0  0  0  0  0  0  0  0
   -2.0119   -2.1100    0.0000 C   0  0  0  0  0  0  0  0  0  0  0  0
   -2.8820   -0.8881    0.0000 C   0  0  0  0  0  0  0  0  0  0  0  0
   -4.3752   -1.0307    0.0000 C   0  0  0  0  0  0  0  0  0  0  0  0
   -4.9983   -2.3952    0.0000 C   0  0  0  0  0  0  0  0  0  0  0  0
   -4.1282   -3.6170    0.0000 C   0  0  0  0  0  0  0  0  0  0  0  0
   -2.6350   -3.4744    0.0000 C   0  0  0  0  0  0  0  0  0  0  0  0
   -2.4215   -4.9592    0.0000 C   0  0  0  0  0  0  0  0  0  0  0  0
   -3.8944   -5.2431    0.0000 C   0  0  0  0  0  0  0  0  0  0  0  0
   -4.3850   -6.6606    0.0000 C   0  0  0  0  0  0  0  0  0  0  0  0
   -3.4027   -7.7942    0.0000 C   0  0  0  0  0  0  0  0  0  0  0  0
   -1.9298   -7.5103    0.0000 C   0  0  0  0  0  0  0  0  0  0  0  0
   -1.4392   -6.0928    0.0000 C   0  0  0  0  0  0  0  0  0  0  0  0
  1  2  1  0
  2  3  1  0
  3  4  1  0
  4  5  1  0
  5  6  1  0
  6  7  1  0
  7  8  2  0
  7  9  1  0
  9 10  1  0
 10 11  2  0
 11 12  1  0
 12 13  2  0
 13 14  1  0
 14 15  1  0
 15 16  2  0
 16 17  1  0
 17 18  2  0
 18 19  1  0
 19 20  2  0
 19 21  1  0
 21 22  1  0
 22 23  2  0
 23 24  1  0
 24 25  2  0
 25 26  1  0
 26 27  2  0
 18 28  1  0
 28 29  2  0
  6 30  1  0
 30 31  2  0
 31 32  1  0
 32 33  2  0
 33 34  1  0
 34 35  2  0
 35 36  1  0
 36 37  2  0
 37 38  1  0
 38 39  2  0
 39 40  1  0
 40 41  2  0
 41 42  1  0
 42 43  2  0
 43 44  1  0
 44 45  2  0
 45 46  1  0
 46 47  2  0
 47  2  1  0
 14 10  1  0
 28 15  1  0
 35 30  1  0
 41 36  1  0
 47 42  1  0
 27 22  1  0
M  END
>  <Title>  (1162) 
idABQTgen14

$$$$

     RDKit          2D

 12 11  0  0  0  0  0  0  0  0999 V2000
    0.0000    0.0000    0.0000 C   0  0  0  0  0  0  0  0  0  0  0  0
    1.2990    0.7500    0.0000 C   0  0  0  0  0  0  0  0  0  0  0  0
    2.5981   -0.0000    0.0000 C   0  0  0  0  0  0  0  0  0  0  0  0
    3.8971    0.7500    0.0000 C   0  0  0  0  0  0  0  0  0  0  0  0
    3.8971    2.2500    0.0000 O   0  0  0  0  0  0  0  0  0  0  0  0
    5.1962   -0.0000    0.0000 N   0  0  0  0  0  0  0  0  0  0  0  0
    6.4952    0.7500    0.0000 C   0  0  0  0  0  0  0  0  0  0  0  0
    7.7942   -0.0000    0.0000 C   0  0  0  0  0  0  0  0  0  0  0  0
    6.4952    2.2500    0.0000 C   0  0  0  0  0  0  0  0  0  0  0  0
    7.7942    3.0000    0.0000 C   0  0  0  0  0  0  0  0  0  0  0  0
    7.7942    4.5000    0.0000 C   0  0  0  0  0  0  0  0  0  0  0  0
    9.0933    2.2500    0.0000 C   0  0  0  0  0  0  0  0  0  0  0  0
  1  2  2  0
  2  3  1  0
  3  4  1  0
  4  5  2  0
  4  6  1  0
  6  7  1  0
  7  8  1  0
  7  9  1  0
  9 10  1  0
 10 11  1  0
 10 12  1  0
M  END
>  <Title>  (1163) 
idABQUgen14

$$$$

     RDKit          2D

 27 30  0  0  0  0  0  0  0  0999 V2000
   -3.0000   -2.5981    0.0000 C   0  0  0  0  0  0  0  0  0  0  0  0
   -1.5000   -2.5981    0.0000 C   0  0  0  0  0  0  0  0  0  0  0  0
   -0.7500   -3.8971    0.0000 C   0  0  0  0  0  0  0  0  0  0  0  0
    0.7500   -3.8971    0.0000 C   0  0  0  0  0  0  0  0  0  0  0  0
    1.5000   -2.5981    0.0000 C   0  0  0  0  0  0  0  0  0  0  0  0
    3.0000   -2.5981    0.0000 C   0  0  0  0  0  0  0  0  0  0  0  0
    3.7500   -1.2990    0.0000 O   0  0  0  0  0  0  0  0  0  0  0  0
    3.7500   -3.8971    0.0000 N   0  0  0  0  0  0  0  0  0  0  0  0
    5.2500   -3.8971    0.0000 C   0  0  0  0  0  0  0  0  0  0  0  0
    6.1317   -2.6836    0.0000 N   0  0  0  0  0  0  0  0  0  0  0  0
    7.5583   -3.1471    0.0000 N   0  0  0  0  0  0  0  0  0  0  0  0
    7.5583   -4.6471    0.0000 N   0  0  0  0  0  0  0  0  0  0  0  0
    6.1317   -5.1106    0.0000 N   0  0  0  0  0  0  0  0  0  0  0  0
    5.6682   -6.5372    0.0000 C   0  0  0  0  0  0  0  0  0  0  0  0
    4.2009   -6.8491    0.0000 C   0  0  0  0  0  0  0  0  0  0  0  0
    3.7374   -8.2757    0.0000 C   0  0  0  0  0  0  0  0  0  0  0  0
    4.7411   -9.3904    0.0000 C   0  0  0  0  0  0  0  0  0  0  0  0
    4.2776  -10.8170    0.0000 O   0  0  0  0  0  0  0  0  0  0  0  0
    6.2083   -9.0785    0.0000 C   0  0  0  0  0  0  0  0  0  0  0  0
    6.6718   -7.6519    0.0000 C   0  0  0  0  0  0  0  0  0  0  0  0
    0.7500   -1.2990    0.0000 C   0  0  0  0  0  0  0  0  0  0  0  0
    1.5000    0.0000    0.0000 C   0  0  0  0  0  0  0  0  0  0  0  0
    0.7500    1.2990    0.0000 C   0  0  0  0  0  0  0  0  0  0  0  0
   -0.7500    1.2990    0.0000 C   0  0  0  0  0  0  0  0  0  0  0  0
   -1.5000    2.5981    0.0000 O   0  0  0  0  0  0  0  0  0  0  0  0
   -1.5000    0.0000    0.0000 C   0  0  0  0  0  0  0  0  0  0  0  0
   -0.7500   -1.2990    0.0000 C   0  0  0  0  0  0  0  0  0  0  0  0
  1  2  1  0
  2  3  1  0
  3  4  2  0
  4  5  1  0
  5  6  1  0
  6  7  2  0
  6  8  1  0
  8  9  1  0
  9 10  2  0
 10 11  1  0
 11 12  2  0
 12 13  1  0
 13 14  1  0
 14 15  2  0
 15 16  1  0
 16 17  2  0
 17 18  1  0
 17 19  1  0
 19 20  2  0
  5 21  1  0
 21 22  2  0
 22 23  1  0
 23 24  2  0
 24 25  1  0
 24 26  1  0
 26 27  2  0
 27  2  1  0
 13  9  1  0
 20 14  1  0
 27 21  1  0
M  END
>  <Title>  (1164) 
idABQVgen14

$$$$

     RDKit          2D

  6  6  0  0  0  0  0  0  0  0999 V2000
    2.7760    0.0000    0.0000 C   0  0  0  0  0  0  0  0  0  0  0  0
    1.2760    0.0000    0.0000 C   0  0  0  0  0  0  0  0  0  0  0  0
    0.3943    1.2135    0.0000 C   0  0  0  0  0  0  0  0  0  0  0  0
   -1.0323    0.7500    0.0000 C   0  0  0  0  0  0  0  0  0  0  0  0
   -1.0323   -0.7500    0.0000 C   0  0  0  0  0  0  0  0  0  0  0  0
    0.3943   -1.2135    0.0000 N   0  0  0  0  0  0  0  0  0  0  0  0
  1  2  1  0
  2  3  2  0
  3  4  1  0
  4  5  1  0
  5  6  2  0
  6  2  1  0
M  END
>  <Title>  (1165) 
idABQWgen14

$$$$

     RDKit          2D

 34 38  0  0  0  0  0  0  0  0999 V2000
   -3.0000   -2.5981    0.0000 C   0  0  0  0  0  0  0  0  0  0  0  0
   -1.5000   -2.5981    0.0000 C   0  0  0  0  0  0  0  0  0  0  0  0
   -0.7500   -3.8971    0.0000 C   0  0  0  0  0  0  0  0  0  0  0  0
    0.7500   -3.8971    0.0000 C   0  0  0  0  0  0  0  0  0  0  0  0
    1.5000   -2.5981    0.0000 C   0  0  0  0  0  0  0  0  0  0  0  0
    3.0000   -2.5981    0.0000 C   0  0  0  0  0  0  0  0  0  0  0  0
    3.7500   -1.2990    0.0000 O   0  0  0  0  0  0  0  0  0  0  0  0
    3.7500   -3.8971    0.0000 N   0  0  0  0  0  0  0  0  0  0  0  0
    5.2500   -3.8971    0.0000 C   0  0  0  0  0  0  0  0  0  0  0  0
    6.1317   -2.6836    0.0000 N   0  0  0  0  0  0  0  0  0  0  0  0
    7.5583   -3.1471    0.0000 N   0  0  0  0  0  0  0  0  0  0  0  0
    7.5583   -4.6471    0.0000 N   0  0  0  0  0  0  0  0  0  0  0  0
    6.1317   -5.1106    0.0000 N   0  0  0  0  0  0  0  0  0  0  0  0
    5.6682   -6.5372    0.0000 C   0  0  0  0  0  0  0  0  0  0  0  0
    6.5498   -7.7508    0.0000 C   0  0  0  0  0  0  0  0  0  0  0  0
    5.6682   -8.9643    0.0000 C   0  0  0  0  0  0  0  0  0  0  0  0
    4.2416   -8.5008    0.0000 C   0  0  0  0  0  0  0  0  0  0  0  0
    3.0280   -9.3824    0.0000 C   0  0  0  0  0  0  0  0  0  0  0  0
    3.1848  -10.8742    0.0000 O   0  0  0  0  0  0  0  0  0  0  0  0
    1.6577   -8.7723    0.0000 N   0  0  0  0  0  0  0  0  0  0  0  0
    0.4442   -9.6540    0.0000 C   0  0  0  0  0  0  0  0  0  0  0  0
   -0.9261   -9.0439    0.0000 N   0  0  0  0  0  0  0  0  0  0  0  0
   -2.1396   -9.9256    0.0000 N   0  0  0  0  0  0  0  0  0  0  0  0
   -1.9829  -11.4174    0.0000 N   0  0  0  0  0  0  0  0  0  0  0  0
   -0.6125  -12.0275    0.0000 N   0  0  0  0  0  0  0  0  0  0  0  0
    0.6010  -11.1458    0.0000 N   0  0  0  0  0  0  0  0  0  0  0  0
    4.2416   -7.0008    0.0000 C   0  0  0  0  0  0  0  0  0  0  0  0
    3.0280   -6.1191    0.0000 O   0  0  0  0  0  0  0  0  0  0  0  0
    0.7500   -1.2990    0.0000 C   0  0  0  0  0  0  0  0  0  0  0  0
    1.5000    0.0000    0.0000 C   0  0  0  0  0  0  0  0  0  0  0  0
    0.7500    1.2990    0.0000 C   0  0  0  0  0  0  0  0  0  0  0  0
   -0.7500    1.2990    0.0000 C   0  0  0  0  0  0  0  0  0  0  0  0
   -1.5000    0.0000    0.0000 C   0  0  0  0  0  0  0  0  0  0  0  0
   -0.7500   -1.2990    0.0000 C   0  0  0  0  0  0  0  0  0  0  0  0
  1  2  1  0
  2  3  2  0
  3  4  1  0
  4  5  2  0
  5  6  1  0
  6  7  2  0
  6  8  1  0
  8  9  1  0
  9 10  2  0
 10 11  1  0
 11 12  2  0
 12 13  1  0
 13 14  1  0
 14 15  1  0
 15 16  1  0
 16 17  1  0
 17 18  1  0
 18 19  2  0
 18 20  1  0
 20 21  1  0
 21 22  2  0
 22 23  1  0
 23 24  2  0
 24 25  1  0
 25 26  2  0
 17 27  1  0
 27 28  2  0
  5 29  1  0
 29 30  2  0
 30 31  1  0
 31 32  2  0
 32 33  1  0
 33 34  2  0
 34  2  1  0
 13  9  1  0
 27 14  1  0
 34 29  1  0
 26 21  1  0
M  END
>  <Title>  (1166) 
idABQXgen14

$$$$

     RDKit          2D

 14 14  0  0  0  0  0  0  0  0999 V2000
    6.0000   -5.1962    0.0000 C   0  0  0  0  0  0  0  0  0  0  0  0
    5.2500   -3.8971    0.0000 C   0  0  0  0  0  0  0  0  0  0  0  0
    6.0000   -2.5981    0.0000 C   0  0  0  0  0  0  0  0  0  0  0  0
    7.5000   -2.5981    0.0000 C   0  0  0  0  0  0  0  0  0  0  0  0
    5.2500   -1.2990    0.0000 N   0  0  0  0  0  0  0  0  0  0  0  0
    3.7500   -1.2990    0.0000 C   0  0  0  0  0  0  0  0  0  0  0  0
    3.0000   -2.5981    0.0000 O   0  0  0  0  0  0  0  0  0  0  0  0
    3.0000    0.0000    0.0000 C   0  0  0  0  0  0  0  0  0  0  0  0
    1.5000    0.0000    0.0000 C   0  0  0  0  0  0  0  0  0  0  0  0
    0.7500   -1.2990    0.0000 C   0  0  0  0  0  0  0  0  0  0  0  0
   -0.7500   -1.2990    0.0000 C   0  0  0  0  0  0  0  0  0  0  0  0
   -1.5000    0.0000    0.0000 C   0  0  0  0  0  0  0  0  0  0  0  0
   -0.7500    1.2990    0.0000 N   0  0  0  0  0  0  0  0  0  0  0  0
    0.7500    1.2990    0.0000 C   0  0  0  0  0  0  0  0  0  0  0  0
  1  2  1  0
  2  3  1  0
  3  4  1  0
  3  5  1  0
  5  6  1  0
  6  7  2  0
  6  8  1  0
  8  9  1  0
  9 10  2  0
 10 11  1  0
 11 12  2  0
 12 13  1  0
 13 14  2  0
 14  9  1  0
M  END
>  <Title>  (1167) 
idABQYgen14

$$$$

     RDKit          2D

  7  6  0  0  0  0  0  0  0  0999 V2000
    0.0000    0.0000    0.0000 C   0  0  0  0  0  0  0  0  0  0  0  0
    1.2990    0.7500    0.0000 C   0  0  0  0  0  0  0  0  0  0  0  0
    2.5981   -0.0000    0.0000 C   0  0  0  0  0  0  0  0  0  0  0  0
    3.8971    0.7500    0.0000 C   0  0  0  0  0  0  0  0  0  0  0  0
    5.1962   -0.0000    0.0000 C   0  0  0  0  0  0  0  0  0  0  0  0
    6.4952    0.7500    0.0000 C   0  0  0  0  0  0  0  0  0  0  0  0
    5.1962   -1.5000    0.0000 N   0  0  0  0  0  0  0  0  0  0  0  0
  1  2  1  0
  2  3  2  3
  3  4  1  0
  4  5  1  0
  5  6  1  0
  5  7  1  0
M  END
>  <Title>  (1168) 
idABQZgen14

$$$$

     RDKit          2D

  7  7  0  0  0  0  0  0  0  0999 V2000
    3.5260   -1.2990    0.0000 C   0  0  0  0  0  0  0  0  0  0  0  0
    2.7760    0.0000    0.0000 C   0  0  0  0  0  0  0  0  0  0  0  0
    1.2760    0.0000    0.0000 C   0  0  0  0  0  0  0  0  0  0  0  0
    0.3943    1.2135    0.0000 C   0  0  0  0  0  0  0  0  0  0  0  0
   -1.0323    0.7500    0.0000 C   0  0  0  0  0  0  0  0  0  0  0  0
   -1.0323   -0.7500    0.0000 C   0  0  0  0  0  0  0  0  0  0  0  0
    0.3943   -1.2135    0.0000 C   0  0  0  0  0  0  0  0  0  0  0  0
  1  2  1  0
  2  3  1  0
  3  4  1  0
  4  5  2  0
  5  6  1  0
  6  7  2  0
  7  3  1  0
M  END
>  <Title>  (1169) 
idABRAgen14

$$$$

     RDKit          2D

  9  8  0  0  0  0  0  0  0  0999 V2000
    0.0000    0.0000    0.0000 C   0  0  0  0  0  0  0  0  0  0  0  0
    1.2990    0.7500    0.0000 C   0  0  0  0  0  0  0  0  0  0  0  0
    2.5981   -0.0000    0.0000 C   0  0  0  0  0  0  0  0  0  0  0  0
    3.8971    0.7500    0.0000 C   0  0  0  0  0  0  0  0  0  0  0  0
    5.1962   -0.0000    0.0000 C   0  0  0  0  0  0  0  0  0  0  0  0
    3.8971    2.2500    0.0000 N   0  0  0  0  0  0  0  0  0  0  0  0
    5.1962    3.0000    0.0000 C   0  0  0  0  0  0  0  0  0  0  0  0
    5.1962    4.5000    0.0000 C   0  0  0  0  0  0  0  0  0  0  0  0
    6.4952    2.2500    0.0000 O   0  0  0  0  0  0  0  0  0  0  0  0
  1  2  1  0
  2  3  1  0
  3  4  1  0
  4  5  1  0
  4  6  1  0
  6  7  1  0
  7  8  1  0
  7  9  2  0
M  END
>  <Title>  (1170) 
idABRBgen14

$$$$

     RDKit          2D

 36 40  0  0  0  0  0  0  0  0999 V2000
   -3.1476   -2.1380    0.0000 C   0  0  0  0  0  0  0  0  0  0  0  0
   -1.6852   -2.4718    0.0000 C   0  0  0  0  0  0  0  0  0  0  0  0
   -1.3515   -3.9342    0.0000 C   0  0  0  0  0  0  0  0  0  0  0  0
   -0.0000   -4.5850    0.0000 C   0  0  0  0  0  0  0  0  0  0  0  0
    1.3515   -3.9342    0.0000 C   0  0  0  0  0  0  0  0  0  0  0  0
    1.6852   -2.4718    0.0000 C   0  0  0  0  0  0  0  0  0  0  0  0
    3.1476   -2.1380    0.0000 C   0  0  0  0  0  0  0  0  0  0  0  0
    3.5898   -0.7046    0.0000 O   0  0  0  0  0  0  0  0  0  0  0  0
    4.1679   -3.2376    0.0000 N   0  0  0  0  0  0  0  0  0  0  0  0
    5.6303   -2.9038    0.0000 C   0  0  0  0  0  0  0  0  0  0  0  0
    6.2198   -1.5245    0.0000 N   0  0  0  0  0  0  0  0  0  0  0  0
    7.7138   -1.6590    0.0000 N   0  0  0  0  0  0  0  0  0  0  0  0
    8.0476   -3.1214    0.0000 N   0  0  0  0  0  0  0  0  0  0  0  0
    6.7599   -3.8907    0.0000 N   0  0  0  0  0  0  0  0  0  0  0  0
    6.6254   -5.3847    0.0000 C   0  0  0  0  0  0  0  0  0  0  0  0
    7.7550   -6.3716    0.0000 C   0  0  0  0  0  0  0  0  0  0  0  0
    7.1655   -7.7509    0.0000 C   0  0  0  0  0  0  0  0  0  0  0  0
    5.6715   -7.6164    0.0000 C   0  0  0  0  0  0  0  0  0  0  0  0
    4.6846   -8.7460    0.0000 C   0  0  0  0  0  0  0  0  0  0  0  0
    5.1694  -10.1655    0.0000 O   0  0  0  0  0  0  0  0  0  0  0  0
    3.2129   -8.4561    0.0000 N   0  0  0  0  0  0  0  0  0  0  0  0
    2.2260   -9.5857    0.0000 C   0  0  0  0  0  0  0  0  0  0  0  0
    0.7543   -9.2959    0.0000 N   0  0  0  0  0  0  0  0  0  0  0  0
   -0.2326  -10.4255    0.0000 N   0  0  0  0  0  0  0  0  0  0  0  0
    0.2522  -11.8450    0.0000 N   0  0  0  0  0  0  0  0  0  0  0  0
    1.7239  -12.1348    0.0000 N   0  0  0  0  0  0  0  0  0  0  0  0
    2.7108  -11.0052    0.0000 N   0  0  0  0  0  0  0  0  0  0  0  0
    5.3378   -6.1540    0.0000 C   0  0  0  0  0  0  0  0  0  0  0  0
    3.9585   -5.5645    0.0000 C   0  0  0  0  0  0  0  0  0  0  0  0
    2.7583   -6.4642    0.0000 O   0  0  0  0  0  0  0  0  0  0  0  0
    0.7500   -1.2990    0.0000 C   0  0  0  0  0  0  0  0  0  0  0  0
    1.5000    0.0000    0.0000 C   0  0  0  0  0  0  0  0  0  0  0  0
    0.7500    1.2990    0.0000 C   0  0  0  0  0  0  0  0  0  0  0  0
   -0.7500    1.2990    0.0000 C   0  0  0  0  0  0  0  0  0  0  0  0
   -1.5000    0.0000    0.0000 C   0  0  0  0  0  0  0  0  0  0  0  0
   -0.7500   -1.2990    0.0000 C   0  0  0  0  0  0  0  0  0  0  0  0
  1  2  1  0
  2  3  1  0
  3  4  2  0
  4  5  1  0
  5  6  2  0
  6  7  1  0
  7  8  2  0
  7  9  1  0
  9 10  1  0
 10 11  2  0
 11 12  1  0
 12 13  2  0
 13 14  1  0
 14 15  1  0
 15 16  2  0
 16 17  1  0
 17 18  2  0
 18 19  1  0
 19 20  2  0
 19 21  1  0
 21 22  1  0
 22 23  2  0
 23 24  1  0
 24 25  2  0
 25 26  1  0
 26 27  2  0
 18 28  1  0
 28 29  1  0
 29 30  1  0
  6 31  1  0
 31 32  2  0
 32 33  1  0
 33 34  2  0
 34 35  1  0
 35 36  2  0
 36  2  1  0
 14 10  1  0
 28 15  1  0
 36 31  1  0
 27 22  1  0
M  END
>  <Title>  (1171) 
idABRCgen14

$$$$

     RDKit          2D

 34 38  0  0  0  0  0  0  0  0999 V2000
   -2.6401   -3.1891    0.0000 C   0  0  0  0  0  0  0  0  0  0  0  0
   -1.2135   -2.7256    0.0000 C   0  0  0  0  0  0  0  0  0  0  0  0
   -0.0000   -3.6073    0.0000 C   0  0  0  0  0  0  0  0  0  0  0  0
    1.2135   -2.7256    0.0000 C   0  0  0  0  0  0  0  0  0  0  0  0
    2.6401   -3.1891    0.0000 C   0  0  0  0  0  0  0  0  0  0  0  0
    3.7548   -2.1855    0.0000 O   0  0  0  0  0  0  0  0  0  0  0  0
    2.9520   -4.6564    0.0000 N   0  0  0  0  0  0  0  0  0  0  0  0
    4.3786   -5.1199    0.0000 C   0  0  0  0  0  0  0  0  0  0  0  0
    5.5921   -4.2382    0.0000 N   0  0  0  0  0  0  0  0  0  0  0  0
    6.8056   -5.1199    0.0000 N   0  0  0  0  0  0  0  0  0  0  0  0
    6.3421   -6.5465    0.0000 N   0  0  0  0  0  0  0  0  0  0  0  0
    4.8421   -6.5465    0.0000 N   0  0  0  0  0  0  0  0  0  0  0  0
    3.9604   -7.7600    0.0000 N   0  0  0  0  0  0  0  0  0  0  0  0
    4.4239   -9.1866    0.0000 C   0  0  0  0  0  0  0  0  0  0  0  0
    3.2104  -10.0683    0.0000 C   0  0  0  0  0  0  0  0  0  0  0  0
    1.9969   -9.1866    0.0000 N   0  0  0  0  0  0  0  0  0  0  0  0
    0.5703   -9.6501    0.0000 C   0  0  0  0  0  0  0  0  0  0  0  0
    0.2584  -11.1173    0.0000 O   0  0  0  0  0  0  0  0  0  0  0  0
   -0.5444   -8.6464    0.0000 N   0  0  0  0  0  0  0  0  0  0  0  0
   -1.9710   -9.1099    0.0000 C   0  0  0  0  0  0  0  0  0  0  0  0
   -3.0857   -8.1062    0.0000 N   0  0  0  0  0  0  0  0  0  0  0  0
   -4.5123   -8.5698    0.0000 N   0  0  0  0  0  0  0  0  0  0  0  0
   -4.8242  -10.0370    0.0000 N   0  0  0  0  0  0  0  0  0  0  0  0
   -3.7095  -11.0407    0.0000 N   0  0  0  0  0  0  0  0  0  0  0  0
   -2.2829  -10.5772    0.0000 N   0  0  0  0  0  0  0  0  0  0  0  0
    2.4604   -7.7600    0.0000 C   0  0  0  0  0  0  0  0  0  0  0  0
    1.5787   -6.5465    0.0000 O   0  0  0  0  0  0  0  0  0  0  0  0
    0.7500   -1.2990    0.0000 C   0  0  0  0  0  0  0  0  0  0  0  0
    1.5000    0.0000    0.0000 C   0  0  0  0  0  0  0  0  0  0  0  0
    0.7500    1.2990    0.0000 C   0  0  0  0  0  0  0  0  0  0  0  0
   -0.7500    1.2990    0.0000 C   0  0  0  0  0  0  0  0  0  0  0  0
   -1.5000    2.5981    0.0000 O   0  0  0  0  0  0  0  0  0  0  0  0
   -1.5000    0.0000    0.0000 C   0  0  0  0  0  0  0  0  0  0  0  0
   -0.7500   -1.2990    0.0000 C   0  0  0  0  0  0  0  0  0  0  0  0
  1  2  1  0
  2  3  2  0
  3  4  1  0
  4  5  1  0
  5  6  2  0
  5  7  1  0
  7  8  1  0
  8  9  2  0
  9 10  1  0
 10 11  2  0
 11 12  1  0
 12 13  1  0
 13 14  1  0
 14 15  1  0
 15 16  1  0
 16 17  1  0
 17 18  2  0
 17 19  1  0
 19 20  1  0
 20 21  2  0
 21 22  1  0
 22 23  2  0
 23 24  1  0
 24 25  2  0
 16 26  1  0
 26 27  2  0
  4 28  1  0
 28 29  2  0
 29 30  1  0
 30 31  2  0
 31 32  1  0
 31 33  1  0
 33 34  2  0
 34  2  1  0
 12  8  1  0
 26 13  1  0
 34 28  1  0
 25 20  1  0
M  END
>  <Title>  (1172) 
idABRDgen14

$$$$

     RDKit          2D

  7  6  0  0  0  0  0  0  0  0999 V2000
    0.0000    0.0000    0.0000 C   0  0  0  0  0  0  0  0  0  0  0  0
    1.2990    0.7500    0.0000 C   0  0  0  0  0  0  0  0  0  0  0  0
    2.5981   -0.0000    0.0000 C   0  0  0  0  0  0  0  0  0  0  0  0
    3.8971    0.7500    0.0000 N   0  0  0  0  0  0  0  0  0  0  0  0
    5.1962   -0.0000    0.0000 C   0  0  0  0  0  0  0  0  0  0  0  0
    6.4952    0.7500    0.0000 C   0  0  0  0  0  0  0  0  0  0  0  0
    5.1962   -1.5000    0.0000 O   0  0  0  0  0  0  0  0  0  0  0  0
  1  2  1  0
  2  3  2  3
  3  4  1  0
  4  5  1  0
  5  6  1  0
  5  7  2  0
M  END
>  <Title>  (1173) 
idABREgen14

$$$$

     RDKit          2D

 36 40  0  0  0  0  0  0  0  0999 V2000
   -3.1965   -1.7857    0.0000 C   0  0  0  0  0  0  0  0  0  0  0  0
   -1.8107   -2.3597    0.0000 C   0  0  0  0  0  0  0  0  0  0  0  0
   -1.8107   -3.8597    0.0000 C   0  0  0  0  0  0  0  0  0  0  0  0
   -0.7500   -4.9204    0.0000 S   0  0  0  0  0  0  0  0  0  0  0  0
    0.7500   -4.9204    0.0000 C   0  0  0  0  0  0  0  0  0  0  0  0
    1.8107   -3.8597    0.0000 C   0  0  0  0  0  0  0  0  0  0  0  0
    1.8107   -2.3597    0.0000 C   0  0  0  0  0  0  0  0  0  0  0  0
    3.1965   -1.7857    0.0000 C   0  0  0  0  0  0  0  0  0  0  0  0
    3.3923   -0.2985    0.0000 O   0  0  0  0  0  0  0  0  0  0  0  0
    4.3865   -2.6988    0.0000 N   0  0  0  0  0  0  0  0  0  0  0  0
    5.7723   -2.1248    0.0000 C   0  0  0  0  0  0  0  0  0  0  0  0
    6.1225   -0.6662    0.0000 N   0  0  0  0  0  0  0  0  0  0  0  0
    7.6179   -0.5485    0.0000 N   0  0  0  0  0  0  0  0  0  0  0  0
    8.1919   -1.9344    0.0000 N   0  0  0  0  0  0  0  0  0  0  0  0
    7.0513   -2.9085    0.0000 N   0  0  0  0  0  0  0  0  0  0  0  0
    7.1690   -4.4039    0.0000 N   0  0  0  0  0  0  0  0  0  0  0  0
    8.4479   -5.1877    0.0000 C   0  0  0  0  0  0  0  0  0  0  0  0
    8.0978   -6.6462    0.0000 C   0  0  0  0  0  0  0  0  0  0  0  0
    6.6024   -6.7639    0.0000 N   0  0  0  0  0  0  0  0  0  0  0  0
    5.8186   -8.0429    0.0000 C   0  0  0  0  0  0  0  0  0  0  0  0
    6.5344   -9.3611    0.0000 O   0  0  0  0  0  0  0  0  0  0  0  0
    4.3192   -8.0036    0.0000 N   0  0  0  0  0  0  0  0  0  0  0  0
    3.5354   -9.2826    0.0000 C   0  0  0  0  0  0  0  0  0  0  0  0
    2.0359   -9.2433    0.0000 N   0  0  0  0  0  0  0  0  0  0  0  0
    1.2522  -10.5223    0.0000 N   0  0  0  0  0  0  0  0  0  0  0  0
    1.9679  -11.8405    0.0000 N   0  0  0  0  0  0  0  0  0  0  0  0
    3.4674  -11.8797    0.0000 N   0  0  0  0  0  0  0  0  0  0  0  0
    4.2512  -10.6008    0.0000 N   0  0  0  0  0  0  0  0  0  0  0  0
    6.0284   -5.3781    0.0000 C   0  0  0  0  0  0  0  0  0  0  0  0
    4.5698   -5.0279    0.0000 O   0  0  0  0  0  0  0  0  0  0  0  0
    0.7500   -1.2990    0.0000 C   0  0  0  0  0  0  0  0  0  0  0  0
    1.5000    0.0000    0.0000 C   0  0  0  0  0  0  0  0  0  0  0  0
    0.7500    1.2990    0.0000 C   0  0  0  0  0  0  0  0  0  0  0  0
   -0.7500    1.2990    0.0000 C   0  0  0  0  0  0  0  0  0  0  0  0
   -1.5000    0.0000    0.0000 C   0  0  0  0  0  0  0  0  0  0  0  0
   -0.7500   -1.2990    0.0000 C   0  0  0  0  0  0  0  0  0  0  0  0
  1  2  1  0
  2  3  2  0
  3  4  1  0
  4  5  1  0
  5  6  1  0
  6  7  1  0
  7  8  1  0
  8  9  2  0
  8 10  1  0
 10 11  1  0
 11 12  2  0
 12 13  1  0
 13 14  2  0
 14 15  1  0
 15 16  1  0
 16 17  1  0
 17 18  1  0
 18 19  1  0
 19 20  1  0
 20 21  2  0
 20 22  1  0
 22 23  1  0
 23 24  2  0
 24 25  1  0
 25 26  2  0
 26 27  1  0
 27 28  2  0
 19 29  1  0
 29 30  2  0
  7 31  1  0
 31 32  2  0
 32 33  1  0
 33 34  2  0
 34 35  1  0
 35 36  2  0
 36  2  1  0
 15 11  1  0
 29 16  1  0
 36 31  1  0
 28 23  1  0
M  END
>  <Title>  (1174) 
idABRFgen14

$$$$

     RDKit          2D

 14 14  0  0  0  0  0  0  0  0999 V2000
    9.5260   -1.2990    0.0000 C   0  0  0  0  0  0  0  0  0  0  0  0
    8.0260   -1.2990    0.0000 C   0  0  0  0  0  0  0  0  0  0  0  0
    7.2760   -2.5981    0.0000 C   0  0  0  0  0  0  0  0  0  0  0  0
    8.0260   -3.8971    0.0000 C   0  0  0  0  0  0  0  0  0  0  0  0
    5.7760   -2.5981    0.0000 N   0  0  0  0  0  0  0  0  0  0  0  0
    5.0260   -1.2990    0.0000 C   0  0  0  0  0  0  0  0  0  0  0  0
    5.7760    0.0000    0.0000 O   0  0  0  0  0  0  0  0  0  0  0  0
    3.5260   -1.2990    0.0000 N   0  0  0  0  0  0  0  0  0  0  0  0
    2.7760    0.0000    0.0000 C   0  0  0  0  0  0  0  0  0  0  0  0
    1.2760    0.0000    0.0000 C   0  0  0  0  0  0  0  0  0  0  0  0
    0.3943    1.2135    0.0000 C   0  0  0  0  0  0  0  0  0  0  0  0
   -1.0323    0.7500    0.0000 C   0  0  0  0  0  0  0  0  0  0  0  0
   -1.0323   -0.7500    0.0000 C   0  0  0  0  0  0  0  0  0  0  0  0
    0.3943   -1.2135    0.0000 C   0  0  0  0  0  0  0  0  0  0  0  0
  1  2  1  0
  2  3  1  0
  3  4  1  0
  3  5  1  0
  5  6  1  0
  6  7  2  0
  6  8  1  0
  8  9  1  0
  9 10  1  0
 10 11  2  0
 11 12  1  0
 12 13  2  0
 13 14  1  0
 14 10  1  0
M  END
>  <Title>  (1175) 
idABRGgen14

$$$$

     RDKit          2D

 13 13  0  0  0  0  0  0  0  0999 V2000
    8.2500   -3.8971    0.0000 C   0  0  0  0  0  0  0  0  0  0  0  0
    7.5000   -2.5981    0.0000 C   0  0  0  0  0  0  0  0  0  0  0  0
    8.2500   -1.2990    0.0000 O   0  0  0  0  0  0  0  0  0  0  0  0
    6.0000   -2.5981    0.0000 N   0  0  0  0  0  0  0  0  0  0  0  0
    5.2500   -1.2990    0.0000 C   0  0  0  0  0  0  0  0  0  0  0  0
    3.7500   -1.2990    0.0000 C   0  0  0  0  0  0  0  0  0  0  0  0
    3.0000    0.0000    0.0000 C   0  0  0  0  0  0  0  0  0  0  0  0
    1.5000    0.0000    0.0000 C   0  0  0  0  0  0  0  0  0  0  0  0
    0.7500   -1.2990    0.0000 C   0  0  0  0  0  0  0  0  0  0  0  0
   -0.7500   -1.2990    0.0000 C   0  0  0  0  0  0  0  0  0  0  0  0
   -1.5000    0.0000    0.0000 C   0  0  0  0  0  0  0  0  0  0  0  0
   -0.7500    1.2990    0.0000 N   0  0  0  0  0  0  0  0  0  0  0  0
    0.7500    1.2990    0.0000 C   0  0  0  0  0  0  0  0  0  0  0  0
  1  2  1  0
  2  3  2  0
  2  4  1  0
  4  5  1  0
  5  6  1  0
  6  7  1  0
  7  8  1  0
  8  9  2  0
  9 10  1  0
 10 11  2  0
 11 12  1  0
 12 13  2  0
 13  8  1  0
M  END
>  <Title>  (1176) 
idABRHgen14

$$$$

     RDKit          2D

 42 47  0  0  0  0  0  0  0  0999 V2000
   -2.3737   -6.1885    0.0000 C   0  0  0  0  0  0  0  0  0  0  0  0
   -1.4095   -5.0395    0.0000 C   0  0  0  0  0  0  0  0  0  0  0  0
   -0.0000   -5.5525    0.0000 C   0  0  0  0  0  0  0  0  0  0  0  0
    1.4095   -5.0395    0.0000 C   0  0  0  0  0  0  0  0  0  0  0  0
    2.1595   -3.7404    0.0000 C   0  0  0  0  0  0  0  0  0  0  0  0
    1.8991   -2.2632    0.0000 C   0  0  0  0  0  0  0  0  0  0  0  0
    3.1981   -1.5132    0.0000 C   0  0  0  0  0  0  0  0  0  0  0  0
    3.1981   -0.0132    0.0000 O   0  0  0  0  0  0  0  0  0  0  0  0
    4.4971   -2.2632    0.0000 N   0  0  0  0  0  0  0  0  0  0  0  0
    5.7962   -1.5132    0.0000 C   0  0  0  0  0  0  0  0  0  0  0  0
    5.9530   -0.0214    0.0000 N   0  0  0  0  0  0  0  0  0  0  0  0
    7.4202    0.2904    0.0000 N   0  0  0  0  0  0  0  0  0  0  0  0
    8.1702   -1.0086    0.0000 N   0  0  0  0  0  0  0  0  0  0  0  0
    7.1665   -2.1233    0.0000 N   0  0  0  0  0  0  0  0  0  0  0  0
    7.4784   -3.5905    0.0000 C   0  0  0  0  0  0  0  0  0  0  0  0
    8.8487   -4.2007    0.0000 C   0  0  0  0  0  0  0  0  0  0  0  0
    8.6919   -5.6924    0.0000 C   0  0  0  0  0  0  0  0  0  0  0  0
    7.2247   -6.0043    0.0000 C   0  0  0  0  0  0  0  0  0  0  0  0
    6.6146   -7.3746    0.0000 O   0  0  0  0  0  0  0  0  0  0  0  0
    5.1228   -7.5314    0.0000 C   0  0  0  0  0  0  0  0  0  0  0  0
    4.2411   -6.3179    0.0000 O   0  0  0  0  0  0  0  0  0  0  0  0
    4.5127   -8.9017    0.0000 N   0  0  0  0  0  0  0  0  0  0  0  0
    3.0209   -9.0585    0.0000 C   0  0  0  0  0  0  0  0  0  0  0  0
    2.1392   -7.8450    0.0000 N   0  0  0  0  0  0  0  0  0  0  0  0
    0.6474   -8.0018    0.0000 N   0  0  0  0  0  0  0  0  0  0  0  0
    0.0373   -9.3721    0.0000 N   0  0  0  0  0  0  0  0  0  0  0  0
    0.9190  -10.5856    0.0000 N   0  0  0  0  0  0  0  0  0  0  0  0
    2.4108  -10.4288    0.0000 N   0  0  0  0  0  0  0  0  0  0  0  0
    6.4747   -4.7053    0.0000 C   0  0  0  0  0  0  0  0  0  0  0  0
    4.9829   -4.5485    0.0000 O   0  0  0  0  0  0  0  0  0  0  0  0
    0.7500   -1.2990    0.0000 C   0  0  0  0  0  0  0  0  0  0  0  0
    1.5000    0.0000    0.0000 C   0  0  0  0  0  0  0  0  0  0  0  0
    0.7500    1.2990    0.0000 C   0  0  0  0  0  0  0  0  0  0  0  0
   -0.7500    1.2990    0.0000 C   0  0  0  0  0  0  0  0  0  0  0  0
   -1.5000    0.0000    0.0000 C   0  0  0  0  0  0  0  0  0  0  0  0
   -0.7500   -1.2990    0.0000 C   0  0  0  0  0  0  0  0  0  0  0  0
   -1.8991   -2.2632    0.0000 C   0  0  0  0  0  0  0  0  0  0  0  0
   -3.0481   -1.2990    0.0000 C   0  0  0  0  0  0  0  0  0  0  0  0
   -4.4577   -1.8121    0.0000 C   0  0  0  0  0  0  0  0  0  0  0  0
   -4.7181   -3.2893    0.0000 C   0  0  0  0  0  0  0  0  0  0  0  0
   -3.5691   -4.2535    0.0000 C   0  0  0  0  0  0  0  0  0  0  0  0
   -2.1595   -3.7404    0.0000 C   0  0  0  0  0  0  0  0  0  0  0  0
  1  2  1  0
  2  3  1  0
  3  4  2  0
  4  5  1  0
  5  6  1  0
  6  7  1  0
  7  8  2  0
  7  9  1  0
  9 10  1  0
 10 11  2  0
 11 12  1  0
 12 13  2  0
 13 14  1  0
 14 15  1  0
 15 16  2  0
 16 17  1  0
 17 18  2  0
 18 19  1  0
 19 20  1  0
 20 21  2  0
 20 22  1  0
 22 23  1  0
 23 24  2  0
 24 25  1  0
 25 26  2  0
 26 27  1  0
 27 28  2  0
 18 29  1  0
 29 30  2  0
  6 31  1  0
 31 32  2  0
 32 33  1  0
 33 34  2  0
 34 35  1  0
 35 36  2  0
 36 37  1  0
 37 38  2  0
 38 39  1  0
 39 40  2  0
 40 41  1  0
 41 42  2  0
 42  2  1  0
 14 10  1  0
 29 15  1  0
 36 31  1  0
 42 37  1  0
 28 23  1  0
M  END
>  <Title>  (1177) 
idABRIgen14

$$$$

     RDKit          2D

  6  5  0  0  0  0  0  0  0  0999 V2000
    0.0000    0.0000    0.0000 C   0  0  0  0  0  0  0  0  0  0  0  0
    1.2990    0.7500    0.0000 N   0  0  0  0  0  0  0  0  0  0  0  0
    2.5981   -0.0000    0.0000 C   0  0  0  0  0  0  0  0  0  0  0  0
    3.8971    0.7500    0.0000 C   0  0  0  0  0  0  0  0  0  0  0  0
    2.5981   -1.5000    0.0000 C   0  0  0  0  0  0  0  0  0  0  0  0
    3.8971   -2.2500    0.0000 O   0  0  0  0  0  0  0  0  0  0  0  0
  1  2  1  0
  2  3  1  0
  3  4  1  0
  3  5  1  0
  5  6  1  0
M  END
>  <Title>  (1178) 
idABRJgen14

$$$$

     RDKit          2D

  9  9  0  0  0  0  0  0  0  0999 V2000
    3.2286   -0.0000    0.0000 C   0  0  0  0  0  0  0  0  0  0  0  0
    1.7286    0.0000    0.0000 C   0  0  0  0  0  0  0  0  0  0  0  0
    1.0777    1.3515    0.0000 C   0  0  0  0  0  0  0  0  0  0  0  0
   -0.3846    1.6852    0.0000 C   0  0  0  0  0  0  0  0  0  0  0  0
   -1.5574    0.7500    0.0000 C   0  0  0  0  0  0  0  0  0  0  0  0
   -1.5574   -0.7500    0.0000 N   0  0  0  0  0  0  0  0  0  0  0  0
   -0.3846   -1.6852    0.0000 N   0  0  0  0  0  0  0  0  0  0  0  0
    1.0777   -1.3515    0.0000 C   0  0  0  0  0  0  0  0  0  0  0  0
    2.0130   -2.5242    0.0000 O   0  0  0  0  0  0  0  0  0  0  0  0
  1  2  1  0
  2  3  1  0
  3  4  1  0
  4  5  1  0
  5  6  1  0
  6  7  2  0
  7  8  1  0
  8  9  2  0
  8  2  1  0
M  END
>  <Title>  (1179) 
idABRKgen14

$$$$

     RDKit          2D

121122  0  0  0  0  0  0  0  0999 V2000
   -2.0029    1.9922    0.0000 C   0  0  0  0  0  0  0  0  0  0  0  0
   -0.8746    2.9806    0.0000 C   0  0  0  0  0  0  0  0  0  0  0  0
   -2.0823    3.8701    0.0000 C   0  0  0  0  0  0  0  0  0  0  0  0
   -3.2388    4.8254    0.0000 C   0  0  0  0  0  0  0  0  0  0  0  0
   -4.3404    5.8435    0.0000 C   0  0  0  0  0  0  0  0  0  0  0  0
   -5.3837    6.9212    0.0000 C   0  0  0  0  0  0  0  0  0  0  0  0
   -6.3656    8.0552    0.0000 C   0  0  0  0  0  0  0  0  0  0  0  0
   -7.2828    9.2421    0.0000 C   0  0  0  0  0  0  0  0  0  0  0  0
   -8.1327   10.4781    0.0000 C   0  0  0  0  0  0  0  0  0  0  0  0
   -8.9126   11.7594    0.0000 C   0  0  0  0  0  0  0  0  0  0  0  0
   -9.6201   13.0821    0.0000 C   0  0  0  0  0  0  0  0  0  0  0  0
  -10.2530   14.4420    0.0000 C   0  0  0  0  0  0  0  0  0  0  0  0
  -10.8093   15.8350    0.0000 C   0  0  0  0  0  0  0  0  0  0  0  0
  -11.2873   17.2568    0.0000 C   0  0  0  0  0  0  0  0  0  0  0  0
  -11.6856   18.7030    0.0000 C   0  0  0  0  0  0  0  0  0  0  0  0
  -12.0029   20.1690    0.0000 C   0  0  0  0  0  0  0  0  0  0  0  0
  -12.2383   21.6504    0.0000 C   0  0  0  0  0  0  0  0  0  0  0  0
  -12.3909   23.1427    0.0000 C   0  0  0  0  0  0  0  0  0  0  0  0
  -12.4604   24.6410    0.0000 C   0  0  0  0  0  0  0  0  0  0  0  0
  -12.4465   26.1410    0.0000 C   0  0  0  0  0  0  0  0  0  0  0  0
  -12.3493   27.6378    0.0000 C   0  0  0  0  0  0  0  0  0  0  0  0
  -12.1690   29.1270    0.0000 C   0  0  0  0  0  0  0  0  0  0  0  0
  -11.9062   30.6038    0.0000 C   0  0  0  0  0  0  0  0  0  0  0  0
  -11.5618   32.0637    0.0000 C   0  0  0  0  0  0  0  0  0  0  0  0
  -11.1368   33.5022    0.0000 C   0  0  0  0  0  0  0  0  0  0  0  0
  -10.6325   34.9149    0.0000 C   0  0  0  0  0  0  0  0  0  0  0  0
  -10.0504   36.2974    0.0000 C   0  0  0  0  0  0  0  0  0  0  0  0
   -9.3925   37.6454    0.0000 C   0  0  0  0  0  0  0  0  0  0  0  0
   -8.6606   38.9547    0.0000 C   0  0  0  0  0  0  0  0  0  0  0  0
   -7.8571   40.2213    0.0000 C   0  0  0  0  0  0  0  0  0  0  0  0
   -6.9844   41.4414    0.0000 C   0  0  0  0  0  0  0  0  0  0  0  0
   -6.0453   42.6110    0.0000 C   0  0  0  0  0  0  0  0  0  0  0  0
   -5.0427   43.7266    0.0000 C   0  0  0  0  0  0  0  0  0  0  0  0
   -3.9795   44.7848    0.0000 C   0  0  0  0  0  0  0  0  0  0  0  0
   -2.8593   45.7823    0.0000 C   0  0  0  0  0  0  0  0  0  0  0  0
   -1.6853   46.7160    0.0000 C   0  0  0  0  0  0  0  0  0  0  0  0
   -0.4612   47.5830    0.0000 C   0  0  0  0  0  0  0  0  0  0  0  0
    0.8091   48.3806    0.0000 C   0  0  0  0  0  0  0  0  0  0  0  0
    2.1219   49.1064    0.0000 C   0  0  0  0  0  0  0  0  0  0  0  0
    3.4729   49.7582    0.0000 C   0  0  0  0  0  0  0  0  0  0  0  0
    4.8580   50.3338    0.0000 C   0  0  0  0  0  0  0  0  0  0  0  0
    6.2730   50.8315    0.0000 C   0  0  0  0  0  0  0  0  0  0  0  0
    7.7135   51.2499    0.0000 C   0  0  0  0  0  0  0  0  0  0  0  0
    9.1750   51.5875    0.0000 C   0  0  0  0  0  0  0  0  0  0  0  0
   10.6530   51.8435    0.0000 C   0  0  0  0  0  0  0  0  0  0  0  0
   12.1430   52.0168    0.0000 C   0  0  0  0  0  0  0  0  0  0  0  0
   13.6403   52.1071    0.0000 C   0  0  0  0  0  0  0  0  0  0  0  0
   15.1402   52.1141    0.0000 C   0  0  0  0  0  0  0  0  0  0  0  0
   16.6383   52.0377    0.0000 C   0  0  0  0  0  0  0  0  0  0  0  0
   18.1298   51.8781    0.0000 C   0  0  0  0  0  0  0  0  0  0  0  0
   19.6101   51.6359    0.0000 C   0  0  0  0  0  0  0  0  0  0  0  0
   21.0747   51.3118    0.0000 C   0  0  0  0  0  0  0  0  0  0  0  0
   22.5190   50.9068    0.0000 C   0  0  0  0  0  0  0  0  0  0  0  0
   23.9385   50.4222    0.0000 C   0  0  0  0  0  0  0  0  0  0  0  0
   25.3289   49.8594    0.0000 C   0  0  0  0  0  0  0  0  0  0  0  0
   26.6859   49.2203    0.0000 C   0  0  0  0  0  0  0  0  0  0  0  0
   28.0053   48.5067    0.0000 C   0  0  0  0  0  0  0  0  0  0  0  0
   29.2830   47.7208    0.0000 C   0  0  0  0  0  0  0  0  0  0  0  0
   30.5151   46.8652    0.0000 C   0  0  0  0  0  0  0  0  0  0  0  0
   31.6976   45.9425    0.0000 C   0  0  0  0  0  0  0  0  0  0  0  0
   32.8271   44.9554    0.0000 C   0  0  0  0  0  0  0  0  0  0  0  0
   33.9000   43.9071    0.0000 C   0  0  0  0  0  0  0  0  0  0  0  0
   34.9130   42.8008    0.0000 C   0  0  0  0  0  0  0  0  0  0  0  0
   35.8629   41.6399    0.0000 C   0  0  0  0  0  0  0  0  0  0  0  0
   36.7468   40.4280    0.0000 C   0  0  0  0  0  0  0  0  0  0  0  0
   37.5620   39.1689    0.0000 C   0  0  0  0  0  0  0  0  0  0  0  0
   38.3060   37.8664    0.0000 C   0  0  0  0  0  0  0  0  0  0  0  0
   38.9764   36.5245    0.0000 C   0  0  0  0  0  0  0  0  0  0  0  0
   39.5712   35.1475    0.0000 C   0  0  0  0  0  0  0  0  0  0  0  0
   40.0886   33.7396    0.0000 C   0  0  0  0  0  0  0  0  0  0  0  0
   40.5270   32.3050    0.0000 C   0  0  0  0  0  0  0  0  0  0  0  0
   40.8849   30.8484    0.0000 C   0  0  0  0  0  0  0  0  0  0  0  0
   41.1613   29.3741    0.0000 C   0  0  0  0  0  0  0  0  0  0  0  0
   41.3554   27.8867    0.0000 C   0  0  0  0  0  0  0  0  0  0  0  0
   41.4665   26.3908    0.0000 C   0  0  0  0  0  0  0  0  0  0  0  0
   41.4943   24.8911    0.0000 C   0  0  0  0  0  0  0  0  0  0  0  0
   41.4387   23.3921    0.0000 C   0  0  0  0  0  0  0  0  0  0  0  0
   41.2999   21.8985    0.0000 C   0  0  0  0  0  0  0  0  0  0  0  0
   41.0783   20.4150    0.0000 C   0  0  0  0  0  0  0  0  0  0  0  0
   40.7746   18.9460    0.0000 C   0  0  0  0  0  0  0  0  0  0  0  0
   40.3897   17.4963    0.0000 C   0  0  0  0  0  0  0  0  0  0  0  0
   39.9249   16.0701    0.0000 C   0  0  0  0  0  0  0  0  0  0  0  0
   39.3815   14.6720    0.0000 C   0  0  0  0  0  0  0  0  0  0  0  0
   38.7612   13.3062    0.0000 C   0  0  0  0  0  0  0  0  0  0  0  0
   38.0660   11.9771    0.0000 C   0  0  0  0  0  0  0  0  0  0  0  0
   37.2981   10.6886    0.0000 C   0  0  0  0  0  0  0  0  0  0  0  0
   36.4597    9.4448    0.0000 C   0  0  0  0  0  0  0  0  0  0  0  0
   35.5534    8.2495    0.0000 C   0  0  0  0  0  0  0  0  0  0  0  0
   34.5822    7.1064    0.0000 C   0  0  0  0  0  0  0  0  0  0  0  0
   33.5489    6.0190    0.0000 C   0  0  0  0  0  0  0  0  0  0  0  0
   32.4567    4.9908    0.0000 C   0  0  0  0  0  0  0  0  0  0  0  0
   31.3092    4.0248    0.0000 C   0  0  0  0  0  0  0  0  0  0  0  0
   30.1097    3.1241    0.0000 C   0  0  0  0  0  0  0  0  0  0  0  0
   28.8620    2.2915    0.0000 C   0  0  0  0  0  0  0  0  0  0  0  0
   27.5700    1.5295    0.0000 C   0  0  0  0  0  0  0  0  0  0  0  0
   26.2376    0.8405    0.0000 C   0  0  0  0  0  0  0  0  0  0  0  0
   24.8690    0.2266    0.0000 C   0  0  0  0  0  0  0  0  0  0  0  0
   23.4683   -0.3103    0.0000 C   0  0  0  0  0  0  0  0  0  0  0  0
   22.0401   -0.7686    0.0000 C   0  0  0  0  0  0  0  0  0  0  0  0
   20.5885   -1.1467    0.0000 C   0  0  0  0  0  0  0  0  0  0  0  0
   19.1182   -1.4436    0.0000 C   0  0  0  0  0  0  0  0  0  0  0  0
   17.6336   -1.6583    0.0000 C   0  0  0  0  0  0  0  0  0  0  0  0
   16.1394   -1.7902    0.0000 C   0  0  0  0  0  0  0  0  0  0  0  0
   14.6402   -1.8389    0.0000 C   0  0  0  0  0  0  0  0  0  0  0  0
   13.1406   -1.8041    0.0000 C   0  0  0  0  0  0  0  0  0  0  0  0
   11.6453   -1.6861    0.0000 C   0  0  0  0  0  0  0  0  0  0  0  0
   10.1588   -1.4851    0.0000 C   0  0  0  0  0  0  0  0  0  0  0  0
    8.6858   -1.2019    0.0000 C   0  0  0  0  0  0  0  0  0  0  0  0
    7.2308   -0.8372    0.0000 C   0  0  0  0  0  0  0  0  0  0  0  0
    5.7983   -0.3922    0.0000 C   0  0  0  0  0  0  0  0  0  0  0  0
    4.3928    0.1317    0.0000 C   0  0  0  0  0  0  0  0  0  0  0  0
    3.0185    0.7329    0.0000 C   0  0  0  0  0  0  0  0  0  0  0  0
    1.6798    1.4095    0.0000 C   0  0  0  0  0  0  0  0  0  0  0  0
    2.1929    0.0000    0.0000 C   0  0  0  0  0  0  0  0  0  0  0  0
    1.6798   -1.4095    0.0000 C   0  0  0  0  0  0  0  0  0  0  0  0
    0.3808   -2.1595    0.0000 C   0  0  0  0  0  0  0  0  0  0  0  0
   -1.0964   -1.8991    0.0000 C   0  0  0  0  0  0  0  0  0  0  0  0
   -2.0606   -0.7500    0.0000 C   0  0  0  0  0  0  0  0  0  0  0  0
   -2.0606    0.7500    0.0000 C   0  0  0  0  0  0  0  0  0  0  0  0
   -1.0964    1.8991    0.0000 C   0  0  0  0  0  0  0  0  0  0  0  0
    0.3808    2.1595    0.0000 C   0  0  0  0  0  0  0  0  0  0  0  0
  1  2  1  0
  2  3  1  0
  3  4  1  0
  4  5  1  0
  5  6  1  0
  6  7  1  0
  7  8  1  0
  8  9  1  0
  9 10  1  0
 10 11  1  0
 11 12  1  0
 12 13  1  0
 13 14  1  0
 14 15  1  0
 15 16  1  0
 16 17  1  0
 17 18  1  0
 18 19  1  0
 19 20  1  0
 20 21  1  0
 21 22  1  0
 22 23  1  0
 23 24  1  0
 24 25  1  0
 25 26  1  0
 26 27  1  0
 27 28  1  0
 28 29  1  0
 29 30  1  0
 30 31  1  0
 31 32  1  0
 32 33  1  0
 33 34  1  0
 34 35  1  0
 35 36  1  0
 36 37  1  0
 37 38  1  0
 38 39  1  0
 39 40  1  0
 40 41  1  0
 41 42  1  0
 42 43  1  0
 43 44  1  0
 44 45  1  0
 45 46  1  0
 46 47  1  0
 47 48  1  0
 48 49  1  0
 49 50  1  0
 50 51  1  0
 51 52  1  0
 52 53  1  0
 53 54  1  0
 54 55  1  0
 55 56  1  0
 56 57  1  0
 57 58  1  0
 58 59  1  0
 59 60  1  0
 60 61  1  0
 61 62  1  0
 62 63  1  0
 63 64  1  0
 64 65  1  0
 65 66  1  0
 66 67  1  0
 67 68  1  0
 68 69  1  0
 69 70  1  0
 70 71  1  0
 71 72  1  0
 72 73  1  0
 73 74  1  0
 74 75  1  0
 75 76  1  0
 76 77  1  0
 77 78  1  0
 78 79  1  0
 79 80  1  0
 80 81  1  0
 81 82  1  0
 82 83  1  0
 83 84  1  0
 84 85  1  0
 85 86  1  0
 86 87  1  0
 87 88  1  0
 88 89  1  0
 89 90  1  0
 90 91  1  0
 91 92  1  0
 92 93  1  0
 93 94  1  0
 94 95  1  0
 95 96  1  0
 96 97  1  0
 97 98  1  0
 98 99  1  0
 99100  1  0
100101  1  0
101102  1  0
102103  1  0
103104  1  0
104105  1  0
105106  1  0
106107  1  0
107108  1  0
108109  1  0
109110  1  0
110111  1  0
111112  1  0
112113  1  0
113114  1  0
114115  1  0
115116  1  0
116117  2  0
117118  1  0
118119  2  0
119120  1  0
120121  2  0
121  2  1  0
121113  1  0
M  END
>  <Title>  (1180) 
idABRLgen14

$$$$

     RDKit          2D

 10  9  0  0  0  0  0  0  0  0999 V2000
    0.0000    0.0000    0.0000 C   0  0  0  0  0  0  0  0  0  0  0  0
    1.2990    0.7500    0.0000 C   0  0  0  0  0  0  0  0  0  0  0  0
    2.5981   -0.0000    0.0000 C   0  0  0  0  0  0  0  0  0  0  0  0
    3.8971    0.7500    0.0000 C   0  0  0  0  0  0  0  0  0  0  0  0
    5.1962   -0.0000    0.0000 C   0  0  0  0  0  0  0  0  0  0  0  0
    6.4952    0.7500    0.0000 C   0  0  0  0  0  0  0  0  0  0  0  0
    7.7942   -0.0000    0.0000 C   0  0  0  0  0  0  0  0  0  0  0  0
    9.0933    0.7500    0.0000 C   0  0  0  0  0  0  0  0  0  0  0  0
   10.3923   -0.0000    0.0000 C   0  0  0  0  0  0  0  0  0  0  0  0
    9.0933    2.2500    0.0000 C   0  0  0  0  0  0  0  0  0  0  0  0
  1  2  2  0
  2  3  1  0
  3  4  1  0
  4  5  1  0
  5  6  2  3
  6  7  1  0
  7  8  1  0
  8  9  1  0
  8 10  1  0
M  END
>  <Title>  (1181) 
idABRMgen14

$$$$

     RDKit          2D

 10  9  0  0  0  0  0  0  0  0999 V2000
    0.0000    0.0000    0.0000 C   0  0  0  0  0  0  0  0  0  0  0  0
    1.2990    0.7500    0.0000 C   0  0  0  0  0  0  0  0  0  0  0  0
    2.5981   -0.0000    0.0000 C   0  0  0  0  0  0  0  0  0  0  0  0
    3.8971    0.7500    0.0000 C   0  0  0  0  0  0  0  0  0  0  0  0
    5.1962   -0.0000    0.0000 C   0  0  0  0  0  0  0  0  0  0  0  0
    5.1962   -1.5000    0.0000 O   0  0  0  0  0  0  0  0  0  0  0  0
    6.4952    0.7500    0.0000 N   0  0  0  0  0  0  0  0  0  0  0  0
    7.7942   -0.0000    0.0000 C   0  0  0  0  0  0  0  0  0  0  0  0
    9.0933    0.7500    0.0000 C   0  0  0  0  0  0  0  0  0  0  0  0
   10.3923   -0.0000    0.0000 C   0  0  0  0  0  0  0  0  0  0  0  0
  1  2  2  0
  2  3  1  0
  3  4  1  0
  4  5  1  0
  5  6  2  0
  5  7  1  0
  7  8  1  0
  8  9  2  3
  9 10  1  0
M  END
>  <Title>  (1182) 
idABRNgen14

$$$$

     RDKit          2D

 30 34  0  0  0  0  0  0  0  0999 V2000
   -2.6401   -3.1891    0.0000 C   0  0  0  0  0  0  0  0  0  0  0  0
   -1.2135   -2.7256    0.0000 C   0  0  0  0  0  0  0  0  0  0  0  0
   -0.0000   -3.6073    0.0000 C   0  0  0  0  0  0  0  0  0  0  0  0
    1.2135   -2.7256    0.0000 C   0  0  0  0  0  0  0  0  0  0  0  0
    2.6401   -3.1891    0.0000 C   0  0  0  0  0  0  0  0  0  0  0  0
    3.7548   -2.1855    0.0000 O   0  0  0  0  0  0  0  0  0  0  0  0
    2.9520   -4.6564    0.0000 N   0  0  0  0  0  0  0  0  0  0  0  0
    4.3786   -5.1199    0.0000 C   0  0  0  0  0  0  0  0  0  0  0  0
    5.5921   -4.2382    0.0000 N   0  0  0  0  0  0  0  0  0  0  0  0
    6.8056   -5.1199    0.0000 N   0  0  0  0  0  0  0  0  0  0  0  0
    6.3421   -6.5465    0.0000 N   0  0  0  0  0  0  0  0  0  0  0  0
    4.8421   -6.5465    0.0000 N   0  0  0  0  0  0  0  0  0  0  0  0
    3.9604   -7.7600    0.0000 C   0  0  0  0  0  0  0  0  0  0  0  0
    2.4686   -7.6032    0.0000 C   0  0  0  0  0  0  0  0  0  0  0  0
    1.5869   -8.8167    0.0000 C   0  0  0  0  0  0  0  0  0  0  0  0
    2.1971  -10.1871    0.0000 C   0  0  0  0  0  0  0  0  0  0  0  0
    3.6888  -10.3438    0.0000 C   0  0  0  0  0  0  0  0  0  0  0  0
    4.5705   -9.1303    0.0000 C   0  0  0  0  0  0  0  0  0  0  0  0
    6.0623   -9.2871    0.0000 C   0  0  0  0  0  0  0  0  0  0  0  0
    6.6724  -10.6574    0.0000 C   0  0  0  0  0  0  0  0  0  0  0  0
    8.1642  -10.8142    0.0000 C   0  0  0  0  0  0  0  0  0  0  0  0
    9.0459   -9.6007    0.0000 C   0  0  0  0  0  0  0  0  0  0  0  0
    8.4358   -8.2304    0.0000 C   0  0  0  0  0  0  0  0  0  0  0  0
    6.9440   -8.0736    0.0000 C   0  0  0  0  0  0  0  0  0  0  0  0
    0.7500   -1.2990    0.0000 C   0  0  0  0  0  0  0  0  0  0  0  0
    1.5000    0.0000    0.0000 C   0  0  0  0  0  0  0  0  0  0  0  0
    0.7500    1.2990    0.0000 C   0  0  0  0  0  0  0  0  0  0  0  0
   -0.7500    1.2990    0.0000 C   0  0  0  0  0  0  0  0  0  0  0  0
   -1.5000    0.0000    0.0000 C   0  0  0  0  0  0  0  0  0  0  0  0
   -0.7500   -1.2990    0.0000 C   0  0  0  0  0  0  0  0  0  0  0  0
  1  2  1  0
  2  3  1  0
  3  4  2  0
  4  5  1  0
  5  6  2  0
  5  7  1  0
  7  8  1  0
  8  9  2  0
  9 10  1  0
 10 11  2  0
 11 12  1  0
 12 13  1  0
 13 14  2  0
 14 15  1  0
 15 16  2  0
 16 17  1  0
 17 18  2  0
 18 19  1  0
 19 20  2  0
 20 21  1  0
 21 22  2  0
 22 23  1  0
 23 24  2  0
  4 25  1  0
 25 26  2  0
 26 27  1  0
 27 28  2  0
 28 29  1  0
 29 30  2  0
 30  2  1  0
 12  8  1  0
 18 13  1  0
 24 19  1  0
 30 25  1  0
M  END
>  <Title>  (1183) 
idABROgen14

$$$$

     RDKit          2D

 40 44  0  0  0  0  0  0  0  0999 V2000
   -9.1332   -4.7692    0.0000 C   0  0  0  0  0  0  0  0  0  0  0  0
   -8.1129   -3.6696    0.0000 C   0  0  0  0  0  0  0  0  0  0  0  0
   -6.6505   -4.0034    0.0000 C   0  0  0  0  0  0  0  0  0  0  0  0
   -5.6303   -2.9038    0.0000 C   0  0  0  0  0  0  0  0  0  0  0  0
   -4.1679   -3.2376    0.0000 C   0  0  0  0  0  0  0  0  0  0  0  0
   -3.1476   -2.1380    0.0000 C   0  0  0  0  0  0  0  0  0  0  0  0
   -1.6852   -2.4718    0.0000 C   0  0  0  0  0  0  0  0  0  0  0  0
   -1.3515   -3.9342    0.0000 C   0  0  0  0  0  0  0  0  0  0  0  0
   -0.0000   -4.5850    0.0000 C   0  0  0  0  0  0  0  0  0  0  0  0
    1.3515   -3.9342    0.0000 C   0  0  0  0  0  0  0  0  0  0  0  0
    1.6852   -2.4718    0.0000 C   0  0  0  0  0  0  0  0  0  0  0  0
    3.1476   -2.1380    0.0000 C   0  0  0  0  0  0  0  0  0  0  0  0
    3.5898   -0.7046    0.0000 O   0  0  0  0  0  0  0  0  0  0  0  0
    4.1679   -3.2376    0.0000 N   0  0  0  0  0  0  0  0  0  0  0  0
    5.6303   -2.9038    0.0000 C   0  0  0  0  0  0  0  0  0  0  0  0
    6.2198   -1.5245    0.0000 N   0  0  0  0  0  0  0  0  0  0  0  0
    7.7138   -1.6590    0.0000 N   0  0  0  0  0  0  0  0  0  0  0  0
    8.0476   -3.1214    0.0000 N   0  0  0  0  0  0  0  0  0  0  0  0
    6.7599   -3.8907    0.0000 N   0  0  0  0  0  0  0  0  0  0  0  0
    6.6254   -5.3847    0.0000 N   0  0  0  0  0  0  0  0  0  0  0  0
    7.7550   -6.3716    0.0000 C   0  0  0  0  0  0  0  0  0  0  0  0
    7.1655   -7.7509    0.0000 C   0  0  0  0  0  0  0  0  0  0  0  0
    5.6715   -7.6164    0.0000 N   0  0  0  0  0  0  0  0  0  0  0  0
    4.6846   -8.7460    0.0000 C   0  0  0  0  0  0  0  0  0  0  0  0
    5.1694  -10.1655    0.0000 O   0  0  0  0  0  0  0  0  0  0  0  0
    3.2129   -8.4561    0.0000 N   0  0  0  0  0  0  0  0  0  0  0  0
    2.2260   -9.5857    0.0000 C   0  0  0  0  0  0  0  0  0  0  0  0
    0.7543   -9.2959    0.0000 N   0  0  0  0  0  0  0  0  0  0  0  0
   -0.2326  -10.4255    0.0000 N   0  0  0  0  0  0  0  0  0  0  0  0
    0.2522  -11.8450    0.0000 N   0  0  0  0  0  0  0  0  0  0  0  0
    1.7239  -12.1348    0.0000 N   0  0  0  0  0  0  0  0  0  0  0  0
    2.7108  -11.0052    0.0000 N   0  0  0  0  0  0  0  0  0  0  0  0
    5.3378   -6.1540    0.0000 C   0  0  0  0  0  0  0  0  0  0  0  0
    3.9585   -5.5645    0.0000 O   0  0  0  0  0  0  0  0  0  0  0  0
    0.7500   -1.2990    0.0000 C   0  0  0  0  0  0  0  0  0  0  0  0
    1.5000    0.0000    0.0000 C   0  0  0  0  0  0  0  0  0  0  0  0
    0.7500    1.2990    0.0000 C   0  0  0  0  0  0  0  0  0  0  0  0
   -0.7500    1.2990    0.0000 C   0  0  0  0  0  0  0  0  0  0  0  0
   -1.5000    0.0000    0.0000 C   0  0  0  0  0  0  0  0  0  0  0  0
   -0.7500   -1.2990    0.0000 C   0  0  0  0  0  0  0  0  0  0  0  0
  1  2  1  0
  2  3  2  3
  3  4  1  0
  4  5  1  0
  5  6  2  3
  6  7  1  0
  7  8  1  0
  8  9  2  0
  9 10  1  0
 10 11  1  0
 11 12  1  0
 12 13  2  0
 12 14  1  0
 14 15  1  0
 15 16  2  0
 16 17  1  0
 17 18  2  0
 18 19  1  0
 19 20  1  0
 20 21  1  0
 21 22  1  0
 22 23  1  0
 23 24  1  0
 24 25  2  0
 24 26  1  0
 26 27  1  0
 27 28  2  0
 28 29  1  0
 29 30  2  0
 30 31  1  0
 31 32  2  0
 23 33  1  0
 33 34  2  0
 11 35  1  0
 35 36  2  0
 36 37  1  0
 37 38  2  0
 38 39  1  0
 39 40  2  0
 40  7  1  0
 19 15  1  0
 33 20  1  0
 40 35  1  0
 32 27  1  0
M  END
>  <Title>  (1184) 
idABRPgen14

$$$$

     RDKit          2D

  6  6  0  0  0  0  0  0  0  0999 V2000
    2.7760    0.0000    0.0000 O   0  0  0  0  0  0  0  0  0  0  0  0
    1.2760    0.0000    0.0000 C   0  0  0  0  0  0  0  0  0  0  0  0
    0.3943    1.2135    0.0000 C   0  0  0  0  0  0  0  0  0  0  0  0
   -1.0323    0.7500    0.0000 C   0  0  0  0  0  0  0  0  0  0  0  0
   -1.0323   -0.7500    0.0000 C   0  0  0  0  0  0  0  0  0  0  0  0
    0.3943   -1.2135    0.0000 C   0  0  0  0  0  0  0  0  0  0  0  0
  1  2  1  0
  2  3  1  0
  3  4  2  0
  4  5  1  0
  5  6  2  0
  6  2  1  0
M  END
>  <Title>  (1185) 
idABRQgen14

$$$$

     RDKit          2D

 88 88  0  0  0  0  0  0  0  0999 V2000
   22.0356    0.0000    0.0000 C   0  0  0  0  0  0  0  0  0  0  0  0
   20.5356    0.0000    0.0000 C   0  0  0  0  0  0  0  0  0  0  0  0
   20.4808   -1.4990    0.0000 C   0  0  0  0  0  0  0  0  0  0  0  0
   20.3167   -2.9900    0.0000 C   0  0  0  0  0  0  0  0  0  0  0  0
   20.0443   -4.4650    0.0000 C   0  0  0  0  0  0  0  0  0  0  0  0
   19.6649   -5.9163    0.0000 C   0  0  0  0  0  0  0  0  0  0  0  0
   19.1805   -7.3359    0.0000 C   0  0  0  0  0  0  0  0  0  0  0  0
   18.5939   -8.7165    0.0000 C   0  0  0  0  0  0  0  0  0  0  0  0
   17.9080  -10.0505    0.0000 C   0  0  0  0  0  0  0  0  0  0  0  0
   17.1266  -11.3309    0.0000 C   0  0  0  0  0  0  0  0  0  0  0  0
   16.2538  -12.5508    0.0000 C   0  0  0  0  0  0  0  0  0  0  0  0
   15.2943  -13.7038    0.0000 C   0  0  0  0  0  0  0  0  0  0  0  0
   14.2532  -14.7836    0.0000 C   0  0  0  0  0  0  0  0  0  0  0  0
   13.1360  -15.7846    0.0000 C   0  0  0  0  0  0  0  0  0  0  0  0
   11.9488  -16.7014    0.0000 C   0  0  0  0  0  0  0  0  0  0  0  0
   10.6978  -17.5290    0.0000 C   0  0  0  0  0  0  0  0  0  0  0  0
    9.3897  -18.2631    0.0000 C   0  0  0  0  0  0  0  0  0  0  0  0
    8.0316  -18.8998    0.0000 C   0  0  0  0  0  0  0  0  0  0  0  0
    6.6305  -19.4357    0.0000 C   0  0  0  0  0  0  0  0  0  0  0  0
    5.1941  -19.8678    0.0000 C   0  0  0  0  0  0  0  0  0  0  0  0
    3.7300  -20.1940    0.0000 C   0  0  0  0  0  0  0  0  0  0  0  0
    2.2460  -20.4124    0.0000 C   0  0  0  0  0  0  0  0  0  0  0  0
    0.7500  -20.5219    0.0000 C   0  0  0  0  0  0  0  0  0  0  0  0
   -0.7500  -20.5219    0.0000 C   0  0  0  0  0  0  0  0  0  0  0  0
   -2.2460  -20.4124    0.0000 C   0  0  0  0  0  0  0  0  0  0  0  0
   -3.7300  -20.1940    0.0000 C   0  0  0  0  0  0  0  0  0  0  0  0
   -5.1941  -19.8678    0.0000 C   0  0  0  0  0  0  0  0  0  0  0  0
   -6.6305  -19.4357    0.0000 C   0  0  0  0  0  0  0  0  0  0  0  0
   -8.0316  -18.8998    0.0000 C   0  0  0  0  0  0  0  0  0  0  0  0
   -9.3897  -18.2631    0.0000 C   0  0  0  0  0  0  0  0  0  0  0  0
  -10.6978  -17.5290    0.0000 C   0  0  0  0  0  0  0  0  0  0  0  0
  -11.9488  -16.7014    0.0000 C   0  0  0  0  0  0  0  0  0  0  0  0
  -13.1360  -15.7846    0.0000 C   0  0  0  0  0  0  0  0  0  0  0  0
  -14.2532  -14.7836    0.0000 C   0  0  0  0  0  0  0  0  0  0  0  0
  -15.2943  -13.7038    0.0000 C   0  0  0  0  0  0  0  0  0  0  0  0
  -16.2538  -12.5508    0.0000 C   0  0  0  0  0  0  0  0  0  0  0  0
  -17.1266  -11.3309    0.0000 C   0  0  0  0  0  0  0  0  0  0  0  0
  -17.9080  -10.0505    0.0000 C   0  0  0  0  0  0  0  0  0  0  0  0
  -18.5939   -8.7165    0.0000 C   0  0  0  0  0  0  0  0  0  0  0  0
  -19.1805   -7.3359    0.0000 C   0  0  0  0  0  0  0  0  0  0  0  0
  -19.6649   -5.9163    0.0000 C   0  0  0  0  0  0  0  0  0  0  0  0
  -20.0443   -4.4650    0.0000 C   0  0  0  0  0  0  0  0  0  0  0  0
  -20.3167   -2.9900    0.0000 C   0  0  0  0  0  0  0  0  0  0  0  0
  -20.4808   -1.4990    0.0000 C   0  0  0  0  0  0  0  0  0  0  0  0
  -20.5356    0.0000    0.0000 C   0  0  0  0  0  0  0  0  0  0  0  0
  -20.4808    1.4990    0.0000 C   0  0  0  0  0  0  0  0  0  0  0  0
  -20.3167    2.9900    0.0000 C   0  0  0  0  0  0  0  0  0  0  0  0
  -20.0443    4.4650    0.0000 C   0  0  0  0  0  0  0  0  0  0  0  0
  -19.6649    5.9163    0.0000 C   0  0  0  0  0  0  0  0  0  0  0  0
  -19.1805    7.3359    0.0000 C   0  0  0  0  0  0  0  0  0  0  0  0
  -18.5939    8.7165    0.0000 C   0  0  0  0  0  0  0  0  0  0  0  0
  -17.9080   10.0505    0.0000 C   0  0  0  0  0  0  0  0  0  0  0  0
  -17.1266   11.3309    0.0000 C   0  0  0  0  0  0  0  0  0  0  0  0
  -16.2538   12.5508    0.0000 C   0  0  0  0  0  0  0  0  0  0  0  0
  -15.2943   13.7038    0.0000 C   0  0  0  0  0  0  0  0  0  0  0  0
  -14.2532   14.7836    0.0000 C   0  0  0  0  0  0  0  0  0  0  0  0
  -13.1360   15.7846    0.0000 C   0  0  0  0  0  0  0  0  0  0  0  0
  -11.9488   16.7014    0.0000 C   0  0  0  0  0  0  0  0  0  0  0  0
  -10.6978   17.5290    0.0000 C   0  0  0  0  0  0  0  0  0  0  0  0
   -9.3897   18.2631    0.0000 C   0  0  0  0  0  0  0  0  0  0  0  0
   -8.0316   18.8998    0.0000 C   0  0  0  0  0  0  0  0  0  0  0  0
   -6.6305   19.4357    0.0000 C   0  0  0  0  0  0  0  0  0  0  0  0
   -5.1941   19.8678    0.0000 C   0  0  0  0  0  0  0  0  0  0  0  0
   -3.7300   20.1940    0.0000 C   0  0  0  0  0  0  0  0  0  0  0  0
   -2.2460   20.4124    0.0000 C   0  0  0  0  0  0  0  0  0  0  0  0
   -0.7500   20.5219    0.0000 C   0  0  0  0  0  0  0  0  0  0  0  0
    0.7500   20.5219    0.0000 C   0  0  0  0  0  0  0  0  0  0  0  0
    2.2460   20.4124    0.0000 C   0  0  0  0  0  0  0  0  0  0  0  0
    3.7300   20.1940    0.0000 C   0  0  0  0  0  0  0  0  0  0  0  0
    5.1941   19.8678    0.0000 C   0  0  0  0  0  0  0  0  0  0  0  0
    6.6305   19.4357    0.0000 C   0  0  0  0  0  0  0  0  0  0  0  0
    8.0316   18.8998    0.0000 C   0  0  0  0  0  0  0  0  0  0  0  0
    9.3897   18.2631    0.0000 C   0  0  0  0  0  0  0  0  0  0  0  0
   10.6978   17.5290    0.0000 C   0  0  0  0  0  0  0  0  0  0  0  0
   11.9488   16.7014    0.0000 C   0  0  0  0  0  0  0  0  0  0  0  0
   13.1360   15.7846    0.0000 C   0  0  0  0  0  0  0  0  0  0  0  0
   14.2532   14.7836    0.0000 C   0  0  0  0  0  0  0  0  0  0  0  0
   15.2943   13.7038    0.0000 C   0  0  0  0  0  0  0  0  0  0  0  0
   16.2538   12.5508    0.0000 C   0  0  0  0  0  0  0  0  0  0  0  0
   17.1266   11.3309    0.0000 C   0  0  0  0  0  0  0  0  0  0  0  0
   17.9080   10.0505    0.0000 C   0  0  0  0  0  0  0  0  0  0  0  0
   18.5939    8.7165    0.0000 C   0  0  0  0  0  0  0  0  0  0  0  0
   19.1805    7.3359    0.0000 C   0  0  0  0  0  0  0  0  0  0  0  0
   19.6649    5.9163    0.0000 C   0  0  0  0  0  0  0  0  0  0  0  0
   20.0443    4.4650    0.0000 C   0  0  0  0  0  0  0  0  0  0  0  0
   20.3167    2.9900    0.0000 C   0  0  0  0  0  0  0  0  0  0  0  0
   20.4808    1.4990    0.0000 C   0  0  0  0  0  0  0  0  0  0  0  0
   21.9768    1.6085    0.0000 C   0  0  0  0  0  0  0  0  0  0  0  0
  1  2  1  0
  2  3  2  0
  3  4  1  0
  4  5  2  0
  5  6  1  0
  6  7  2  0
  7  8  1  0
  8  9  2  0
  9 10  1  0
 10 11  2  0
 11 12  1  0
 12 13  2  0
 13 14  1  0
 14 15  2  0
 15 16  1  0
 16 17  2  0
 17 18  1  0
 18 19  1  0
 19 20  1  0
 20 21  1  0
 21 22  1  0
 22 23  1  0
 23 24  1  0
 24 25  1  0
 25 26  1  0
 26 27  1  0
 27 28  1  0
 28 29  1  0
 29 30  1  0
 30 31  1  0
 31 32  1  0
 32 33  1  0
 33 34  1  0
 34 35  1  0
 35 36  1  0
 36 37  1  0
 37 38  1  0
 38 39  1  0
 39 40  1  0
 40 41  1  0
 41 42  1  0
 42 43  1  0
 43 44  1  0
 44 45  1  0
 45 46  1  0
 46 47  1  0
 47 48  1  0
 48 49  1  0
 49 50  1  0
 50 51  1  0
 51 52  1  0
 52 53  1  0
 53 54  1  0
 54 55  1  0
 55 56  1  0
 56 57  1  0
 57 58  1  0
 58 59  1  0
 59 60  1  0
 60 61  1  0
 61 62  1  0
 62 63  1  0
 63 64  1  0
 64 65  1  0
 65 66  1  0
 66 67  1  0
 67 68  1  0
 68 69  1  0
 69 70  1  0
 70 71  1  0
 71 72  1  0
 72 73  1  0
 73 74  1  0
 74 75  1  0
 75 76  1  0
 76 77  1  0
 77 78  1  0
 78 79  1  0
 79 80  1  0
 80 81  1  0
 81 82  1  0
 82 83  1  0
 83 84  1  0
 84 85  1  0
 85 86  1  0
 86 87  1  0
 87 88  1  0
 87  2  1  0
M  END
>  <Title>  (1186) 
idABRRgen14

$$$$

     RDKit          2D

 10  9  0  0  0  0  0  0  0  0999 V2000
    0.0000    0.0000    0.0000 C   0  0  0  0  0  0  0  0  0  0  0  0
    1.2990    0.7500    0.0000 C   0  0  0  0  0  0  0  0  0  0  0  0
    2.5981   -0.0000    0.0000 C   0  0  0  0  0  0  0  0  0  0  0  0
    3.8971    0.7500    0.0000 N   0  0  0  0  0  0  0  0  0  0  0  0
    5.1962   -0.0000    0.0000 C   0  0  0  0  0  0  0  0  0  0  0  0
    6.4952    0.7500    0.0000 C   0  0  0  0  0  0  0  0  0  0  0  0
    5.1962   -1.5000    0.0000 C   0  0  0  0  0  0  0  0  0  0  0  0
    6.4952   -2.2500    0.0000 C   0  0  0  0  0  0  0  0  0  0  0  0
    6.4952   -3.7500    0.0000 C   0  0  0  0  0  0  0  0  0  0  0  0
    7.7942   -1.5000    0.0000 C   0  0  0  0  0  0  0  0  0  0  0  0
  1  2  1  0
  2  3  1  0
  3  4  1  0
  4  5  1  0
  5  6  1  0
  5  7  1  0
  7  8  1  0
  8  9  1  0
  8 10  1  0
M  END
>  <Title>  (1187) 
idABRSgen14

$$$$

     RDKit          2D

 13 14  0  0  0  0  0  0  0  0999 V2000
   -0.5773   -4.2803    0.0000 C   0  0  0  0  0  0  0  0  0  0  0  0
    0.8899   -3.9684    0.0000 C   0  0  0  0  0  0  0  0  0  0  0  0
    2.0046   -4.9721    0.0000 C   0  0  0  0  0  0  0  0  0  0  0  0
    3.3037   -4.2221    0.0000 C   0  0  0  0  0  0  0  0  0  0  0  0
    2.9918   -2.7549    0.0000 N   0  0  0  0  0  0  0  0  0  0  0  0
    1.5000   -2.5981    0.0000 N   0  0  0  0  0  0  0  0  0  0  0  0
    0.7500   -1.2990    0.0000 C   0  0  0  0  0  0  0  0  0  0  0  0
    1.5000    0.0000    0.0000 C   0  0  0  0  0  0  0  0  0  0  0  0
    0.7500    1.2990    0.0000 C   0  0  0  0  0  0  0  0  0  0  0  0
   -0.7500    1.2990    0.0000 C   0  0  0  0  0  0  0  0  0  0  0  0
   -1.5000    2.5981    0.0000 F   0  0  0  0  0  0  0  0  0  0  0  0
   -1.5000    0.0000    0.0000 C   0  0  0  0  0  0  0  0  0  0  0  0
   -0.7500   -1.2990    0.0000 C   0  0  0  0  0  0  0  0  0  0  0  0
  1  2  1  0
  2  3  2  0
  3  4  1  0
  4  5  2  0
  5  6  1  0
  6  7  1  0
  7  8  2  0
  8  9  1  0
  9 10  2  0
 10 11  1  0
 10 12  1  0
 12 13  2  0
  6  2  1  0
 13  7  1  0
M  END
>  <Title>  (1188) 
idABRTgen14

$$$$

     RDKit          2D

 43 48  0  0  0  0  0  0  0  0999 V2000
   -3.1771   -5.9156    0.0000 C   0  0  0  0  0  0  0  0  0  0  0  0
   -1.9635   -5.0339    0.0000 C   0  0  0  0  0  0  0  0  0  0  0  0
   -0.7500   -5.9156    0.0000 C   0  0  0  0  0  0  0  0  0  0  0  0
    0.7500   -5.9156    0.0000 C   0  0  0  0  0  0  0  0  0  0  0  0
    1.9635   -5.0339    0.0000 C   0  0  0  0  0  0  0  0  0  0  0  0
    2.4271   -3.6073    0.0000 C   0  0  0  0  0  0  0  0  0  0  0  0
    1.9635   -2.1807    0.0000 C   0  0  0  0  0  0  0  0  0  0  0  0
    3.1771   -1.2990    0.0000 C   0  0  0  0  0  0  0  0  0  0  0  0
    3.0203    0.1927    0.0000 O   0  0  0  0  0  0  0  0  0  0  0  0
    4.5474   -1.9091    0.0000 N   0  0  0  0  0  0  0  0  0  0  0  0
    5.7609   -1.0275    0.0000 C   0  0  0  0  0  0  0  0  0  0  0  0
    5.7609    0.4725    0.0000 N   0  0  0  0  0  0  0  0  0  0  0  0
    7.1875    0.9361    0.0000 N   0  0  0  0  0  0  0  0  0  0  0  0
    8.0692   -0.2775    0.0000 N   0  0  0  0  0  0  0  0  0  0  0  0
    7.1875   -1.4910    0.0000 N   0  0  0  0  0  0  0  0  0  0  0  0
    7.6510   -2.9176    0.0000 C   0  0  0  0  0  0  0  0  0  0  0  0
    9.0776   -3.3811    0.0000 C   0  0  0  0  0  0  0  0  0  0  0  0
    9.0776   -4.8811    0.0000 C   0  0  0  0  0  0  0  0  0  0  0  0
    7.6510   -5.3446    0.0000 C   0  0  0  0  0  0  0  0  0  0  0  0
    7.1875   -6.7712    0.0000 O   0  0  0  0  0  0  0  0  0  0  0  0
    5.7203   -7.0831    0.0000 C   0  0  0  0  0  0  0  0  0  0  0  0
    4.7166   -5.9684    0.0000 O   0  0  0  0  0  0  0  0  0  0  0  0
    5.2567   -8.5097    0.0000 N   0  0  0  0  0  0  0  0  0  0  0  0
    3.7895   -8.8215    0.0000 C   0  0  0  0  0  0  0  0  0  0  0  0
    2.7858   -7.7068    0.0000 N   0  0  0  0  0  0  0  0  0  0  0  0
    1.3186   -8.0187    0.0000 N   0  0  0  0  0  0  0  0  0  0  0  0
    0.8551   -9.4453    0.0000 N   0  0  0  0  0  0  0  0  0  0  0  0
    1.8588  -10.5600    0.0000 N   0  0  0  0  0  0  0  0  0  0  0  0
    3.3260  -10.2481    0.0000 N   0  0  0  0  0  0  0  0  0  0  0  0
    6.7693   -4.1311    0.0000 C   0  0  0  0  0  0  0  0  0  0  0  0
    5.2693   -4.1311    0.0000 O   0  0  0  0  0  0  0  0  0  0  0  0
    0.7500   -1.2990    0.0000 C   0  0  0  0  0  0  0  0  0  0  0  0
    1.5000    0.0000    0.0000 C   0  0  0  0  0  0  0  0  0  0  0  0
    0.7500    1.2990    0.0000 C   0  0  0  0  0  0  0  0  0  0  0  0
   -0.7500    1.2990    0.0000 C   0  0  0  0  0  0  0  0  0  0  0  0
   -1.5000    0.0000    0.0000 C   0  0  0  0  0  0  0  0  0  0  0  0
   -0.7500   -1.2990    0.0000 C   0  0  0  0  0  0  0  0  0  0  0  0
   -1.9635   -2.1807    0.0000 C   0  0  0  0  0  0  0  0  0  0  0  0
   -2.9672   -1.0660    0.0000 C   0  0  0  0  0  0  0  0  0  0  0  0
   -4.4344   -1.3779    0.0000 C   0  0  0  0  0  0  0  0  0  0  0  0
   -4.8980   -2.8045    0.0000 C   0  0  0  0  0  0  0  0  0  0  0  0
   -3.8943   -3.9192    0.0000 C   0  0  0  0  0  0  0  0  0  0  0  0
   -2.4271   -3.6073    0.0000 C   0  0  0  0  0  0  0  0  0  0  0  0
  1  2  1  0
  2  3  1  0
  3  4  1  0
  4  5  1  0
  5  6  1  0
  6  7  1  0
  7  8  1  0
  8  9  2  0
  8 10  1  0
 10 11  1  0
 11 12  2  0
 12 13  1  0
 13 14  2  0
 14 15  1  0
 15 16  1  0
 16 17  2  0
 17 18  1  0
 18 19  2  0
 19 20  1  0
 20 21  1  0
 21 22  2  0
 21 23  1  0
 23 24  1  0
 24 25  2  0
 25 26  1  0
 26 27  2  0
 27 28  1  0
 28 29  2  0
 19 30  1  0
 30 31  2  0
  7 32  1  0
 32 33  2  0
 33 34  1  0
 34 35  2  0
 35 36  1  0
 36 37  2  0
 37 38  1  0
 38 39  2  0
 39 40  1  0
 40 41  2  0
 41 42  1  0
 42 43  2  0
 43  2  1  0
 15 11  1  0
 30 16  1  0
 37 32  1  0
 43 38  1  0
 29 24  1  0
M  END
>  <Title>  (1189) 
idABRUgen14

$$$$

     RDKit          2D

 44 49  0  0  0  0  0  0  0  0999 V2000
   -4.2479   -5.2363    0.0000 C   0  0  0  0  0  0  0  0  0  0  0  0
   -2.7990   -4.8481    0.0000 C   0  0  0  0  0  0  0  0  0  0  0  0
   -2.0490   -6.1471    0.0000 C   0  0  0  0  0  0  0  0  0  0  0  0
   -0.7500   -6.8971    0.0000 C   0  0  0  0  0  0  0  0  0  0  0  0
    0.7500   -6.8971    0.0000 C   0  0  0  0  0  0  0  0  0  0  0  0
    2.0490   -6.1471    0.0000 C   0  0  0  0  0  0  0  0  0  0  0  0
    2.7990   -4.8481    0.0000 C   0  0  0  0  0  0  0  0  0  0  0  0
    2.7990   -3.3481    0.0000 C   0  0  0  0  0  0  0  0  0  0  0  0
    2.0490   -2.0490    0.0000 C   0  0  0  0  0  0  0  0  0  0  0  0
    3.1097   -0.9884    0.0000 C   0  0  0  0  0  0  0  0  0  0  0  0
    2.7215    0.4605    0.0000 O   0  0  0  0  0  0  0  0  0  0  0  0
    4.5586   -1.3766    0.0000 N   0  0  0  0  0  0  0  0  0  0  0  0
    5.6192   -0.3159    0.0000 C   0  0  0  0  0  0  0  0  0  0  0  0
    5.3846    1.1656    0.0000 N   0  0  0  0  0  0  0  0  0  0  0  0
    6.7211    1.8466    0.0000 N   0  0  0  0  0  0  0  0  0  0  0  0
    7.7818    0.7859    0.0000 N   0  0  0  0  0  0  0  0  0  0  0  0
    7.1008   -0.5506    0.0000 N   0  0  0  0  0  0  0  0  0  0  0  0
    7.7818   -1.8871    0.0000 N   0  0  0  0  0  0  0  0  0  0  0  0
    9.2633   -2.1218    0.0000 C   0  0  0  0  0  0  0  0  0  0  0  0
    9.4979   -3.6033    0.0000 C   0  0  0  0  0  0  0  0  0  0  0  0
    8.1614   -4.2843    0.0000 N   0  0  0  0  0  0  0  0  0  0  0  0
    7.9268   -5.7658    0.0000 C   0  0  0  0  0  0  0  0  0  0  0  0
    9.0925   -6.7098    0.0000 O   0  0  0  0  0  0  0  0  0  0  0  0
    6.5264   -6.3034    0.0000 N   0  0  0  0  0  0  0  0  0  0  0  0
    6.2918   -7.7849    0.0000 C   0  0  0  0  0  0  0  0  0  0  0  0
    4.8914   -8.3224    0.0000 N   0  0  0  0  0  0  0  0  0  0  0  0
    4.6567   -9.8040    0.0000 N   0  0  0  0  0  0  0  0  0  0  0  0
    5.8225  -10.7480    0.0000 N   0  0  0  0  0  0  0  0  0  0  0  0
    7.2228  -10.2104    0.0000 N   0  0  0  0  0  0  0  0  0  0  0  0
    7.4575   -8.7289    0.0000 N   0  0  0  0  0  0  0  0  0  0  0  0
    7.1008   -3.2236    0.0000 C   0  0  0  0  0  0  0  0  0  0  0  0
    5.6192   -3.4583    0.0000 O   0  0  0  0  0  0  0  0  0  0  0  0
    0.7500   -1.2990    0.0000 C   0  0  0  0  0  0  0  0  0  0  0  0
    1.5000    0.0000    0.0000 C   0  0  0  0  0  0  0  0  0  0  0  0
    0.7500    1.2990    0.0000 C   0  0  0  0  0  0  0  0  0  0  0  0
   -0.7500    1.2990    0.0000 C   0  0  0  0  0  0  0  0  0  0  0  0
   -1.5000    0.0000    0.0000 C   0  0  0  0  0  0  0  0  0  0  0  0
   -0.7500   -1.2990    0.0000 C   0  0  0  0  0  0  0  0  0  0  0  0
   -2.0490   -2.0490    0.0000 C   0  0  0  0  0  0  0  0  0  0  0  0
   -2.7990   -0.7500    0.0000 C   0  0  0  0  0  0  0  0  0  0  0  0
   -4.2990   -0.7500    0.0000 C   0  0  0  0  0  0  0  0  0  0  0  0
   -5.0490   -2.0490    0.0000 C   0  0  0  0  0  0  0  0  0  0  0  0
   -4.2990   -3.3481    0.0000 C   0  0  0  0  0  0  0  0  0  0  0  0
   -2.7990   -3.3481    0.0000 C   0  0  0  0  0  0  0  0  0  0  0  0
  1  2  1  0
  2  3  1  0
  3  4  1  0
  4  5  1  0
  5  6  1  0
  6  7  1  0
  7  8  1  0
  8  9  1  0
  9 10  1  0
 10 11  2  0
 10 12  1  0
 12 13  1  0
 13 14  2  0
 14 15  1  0
 15 16  2  0
 16 17  1  0
 17 18  1  0
 18 19  1  0
 19 20  1  0
 20 21  1  0
 21 22  1  0
 22 23  2  0
 22 24  1  0
 24 25  1  0
 25 26  2  0
 26 27  1  0
 27 28  2  0
 28 29  1  0
 29 30  2  0
 21 31  1  0
 31 32  2  0
  9 33  1  0
 33 34  2  0
 34 35  1  0
 35 36  2  0
 36 37  1  0
 37 38  2  0
 38 39  1  0
 39 40  2  0
 40 41  1  0
 41 42  2  0
 42 43  1  0
 43 44  2  0
 44  2  1  0
 17 13  1  0
 31 18  1  0
 38 33  1  0
 44 39  1  0
 30 25  1  0
M  END
>  <Title>  (1190) 
idABRVgen14

$$$$

     RDKit          2D

 99100  0  0  0  0  0  0  0  0999 V2000
    8.3612    4.3889    0.0000 C   0  0  0  0  0  0  0  0  0  0  0  0
    9.1564    4.4447    0.0000 C   0  0  0  0  0  0  0  0  0  0  0  0
    9.1311    5.9445    0.0000 C   0  0  0  0  0  0  0  0  0  0  0  0
    9.2653    7.4385    0.0000 C   0  0  0  0  0  0  0  0  0  0  0  0
    9.5576    8.9098    0.0000 C   0  0  0  0  0  0  0  0  0  0  0  0
   10.0046   10.3416    0.0000 C   0  0  0  0  0  0  0  0  0  0  0  0
   10.6013   11.7178    0.0000 C   0  0  0  0  0  0  0  0  0  0  0  0
   11.3408   13.0228    0.0000 C   0  0  0  0  0  0  0  0  0  0  0  0
   12.2149   14.2418    0.0000 C   0  0  0  0  0  0  0  0  0  0  0  0
   13.2137   15.3610    0.0000 C   0  0  0  0  0  0  0  0  0  0  0  0
   14.3257   16.3677    0.0000 C   0  0  0  0  0  0  0  0  0  0  0  0
   15.5384   17.2505    0.0000 C   0  0  0  0  0  0  0  0  0  0  0  0
   16.8381   17.9993    0.0000 C   0  0  0  0  0  0  0  0  0  0  0  0
   18.2100   18.6058    0.0000 C   0  0  0  0  0  0  0  0  0  0  0  0
   19.6386   19.0631    0.0000 C   0  0  0  0  0  0  0  0  0  0  0  0
   21.1078   19.3658    0.0000 C   0  0  0  0  0  0  0  0  0  0  0  0
   22.6007   19.5107    0.0000 C   0  0  0  0  0  0  0  0  0  0  0  0
   24.1007   19.4961    0.0000 C   0  0  0  0  0  0  0  0  0  0  0  0
   25.5905   19.3222    0.0000 C   0  0  0  0  0  0  0  0  0  0  0  0
   27.0535   18.9908    0.0000 C   0  0  0  0  0  0  0  0  0  0  0  0
   28.4729   18.5059    0.0000 C   0  0  0  0  0  0  0  0  0  0  0  0
   29.8328   17.8728    0.0000 C   0  0  0  0  0  0  0  0  0  0  0  0
   31.1176   17.0987    0.0000 C   0  0  0  0  0  0  0  0  0  0  0  0
   32.3129   16.1925    0.0000 C   0  0  0  0  0  0  0  0  0  0  0  0
   33.4051   15.1643    0.0000 C   0  0  0  0  0  0  0  0  0  0  0  0
   34.3819   14.0259    0.0000 C   0  0  0  0  0  0  0  0  0  0  0  0
   35.2320   12.7901    0.0000 C   0  0  0  0  0  0  0  0  0  0  0  0
   35.9461   11.4709    0.0000 C   0  0  0  0  0  0  0  0  0  0  0  0
   36.5158   10.0834    0.0000 C   0  0  0  0  0  0  0  0  0  0  0  0
   36.9348    8.6431    0.0000 C   0  0  0  0  0  0  0  0  0  0  0  0
   37.1984    7.1664    0.0000 C   0  0  0  0  0  0  0  0  0  0  0  0
   37.3035    5.6701    0.0000 C   0  0  0  0  0  0  0  0  0  0  0  0
   37.2490    4.1711    0.0000 C   0  0  0  0  0  0  0  0  0  0  0  0
   37.0354    2.6864    0.0000 C   0  0  0  0  0  0  0  0  0  0  0  0
   36.6652    1.2328    0.0000 C   0  0  0  0  0  0  0  0  0  0  0  0
   36.1427   -0.1733    0.0000 C   0  0  0  0  0  0  0  0  0  0  0  0
   35.4736   -1.5158    0.0000 C   0  0  0  0  0  0  0  0  0  0  0  0
   34.6656   -2.7796    0.0000 C   0  0  0  0  0  0  0  0  0  0  0  0
   33.7279   -3.9503    0.0000 C   0  0  0  0  0  0  0  0  0  0  0  0
   32.6710   -5.0148    0.0000 C   0  0  0  0  0  0  0  0  0  0  0  0
   31.5070   -5.9608    0.0000 C   0  0  0  0  0  0  0  0  0  0  0  0
   30.2490   -6.7778    0.0000 C   0  0  0  0  0  0  0  0  0  0  0  0
   28.9113   -7.4565    0.0000 C   0  0  0  0  0  0  0  0  0  0  0  0
   27.5090   -7.9891    0.0000 C   0  0  0  0  0  0  0  0  0  0  0  0
   26.0581   -8.3696    0.0000 C   0  0  0  0  0  0  0  0  0  0  0  0
   24.5750   -8.5938    0.0000 C   0  0  0  0  0  0  0  0  0  0  0  0
   23.0764   -8.6590    0.0000 C   0  0  0  0  0  0  0  0  0  0  0  0
   21.5794   -8.5646    0.0000 C   0  0  0  0  0  0  0  0  0  0  0  0
   20.1009   -8.3116    0.0000 C   0  0  0  0  0  0  0  0  0  0  0  0
   18.6576   -7.9028    0.0000 C   0  0  0  0  0  0  0  0  0  0  0  0
   17.2660   -7.3430    0.0000 C   0  0  0  0  0  0  0  0  0  0  0  0
   15.9418   -6.6384    0.0000 C   0  0  0  0  0  0  0  0  0  0  0  0
   14.6999   -5.7971    0.0000 C   0  0  0  0  0  0  0  0  0  0  0  0
   13.5546   -4.8285    0.0000 C   0  0  0  0  0  0  0  0  0  0  0  0
   12.5186   -3.7437    0.0000 C   0  0  0  0  0  0  0  0  0  0  0  0
   11.6039   -2.5549    0.0000 C   0  0  0  0  0  0  0  0  0  0  0  0
   10.8207   -1.2756    0.0000 C   0  0  0  0  0  0  0  0  0  0  0  0
   10.1779    0.0797    0.0000 C   0  0  0  0  0  0  0  0  0  0  0  0
    9.6828    1.4956    0.0000 C   0  0  0  0  0  0  0  0  0  0  0  0
    9.0976    0.0000    0.0000 C   0  0  0  0  0  0  0  0  0  0  0  0
    8.9910   -1.3887    0.0000 C   0  0  0  0  0  0  0  0  0  0  0  0
    8.6736   -2.7449    0.0000 C   0  0  0  0  0  0  0  0  0  0  0  0
    8.1530   -4.0368    0.0000 C   0  0  0  0  0  0  0  0  0  0  0  0
    7.4412   -5.2340    0.0000 C   0  0  0  0  0  0  0  0  0  0  0  0
    6.5550   -6.3086    0.0000 C   0  0  0  0  0  0  0  0  0  0  0  0
    5.5152   -7.2353    0.0000 C   0  0  0  0  0  0  0  0  0  0  0  0
    4.3461   -7.9924    0.0000 C   0  0  0  0  0  0  0  0  0  0  0  0
    3.0751   -8.5621    0.0000 C   0  0  0  0  0  0  0  0  0  0  0  0
    1.7321   -8.9312    0.0000 C   0  0  0  0  0  0  0  0  0  0  0  0
    0.3485   -9.0909    0.0000 C   0  0  0  0  0  0  0  0  0  0  0  0
   -1.0433   -9.0376    0.0000 C   0  0  0  0  0  0  0  0  0  0  0  0
   -2.4107   -8.7724    0.0000 C   0  0  0  0  0  0  0  0  0  0  0  0
   -3.7215   -8.3016    0.0000 C   0  0  0  0  0  0  0  0  0  0  0  0
   -4.9452   -7.6362    0.0000 C   0  0  0  0  0  0  0  0  0  0  0  0
   -6.0529   -6.7919    0.0000 C   0  0  0  0  0  0  0  0  0  0  0  0
   -7.0187   -5.7883    0.0000 C   0  0  0  0  0  0  0  0  0  0  0  0
   -7.8200   -4.6491    0.0000 C   0  0  0  0  0  0  0  0  0  0  0  0
   -8.4381   -3.4008    0.0000 C   0  0  0  0  0  0  0  0  0  0  0  0
   -8.8583   -2.0729    0.0000 C   0  0  0  0  0  0  0  0  0  0  0  0
   -9.0709   -0.6964    0.0000 C   0  0  0  0  0  0  0  0  0  0  0  0
   -9.0709    0.6964    0.0000 C   0  0  0  0  0  0  0  0  0  0  0  0
   -8.8583    2.0729    0.0000 C   0  0  0  0  0  0  0  0  0  0  0  0
   -8.4381    3.4008    0.0000 C   0  0  0  0  0  0  0  0  0  0  0  0
   -7.8200    4.6491    0.0000 C   0  0  0  0  0  0  0  0  0  0  0  0
   -7.0187    5.7883    0.0000 C   0  0  0  0  0  0  0  0  0  0  0  0
   -6.0529    6.7919    0.0000 C   0  0  0  0  0  0  0  0  0  0  0  0
   -4.9452    7.6362    0.0000 C   0  0  0  0  0  0  0  0  0  0  0  0
   -3.7215    8.3016    0.0000 C   0  0  0  0  0  0  0  0  0  0  0  0
   -2.4107    8.7724    0.0000 C   0  0  0  0  0  0  0  0  0  0  0  0
   -1.0433    9.0376    0.0000 C   0  0  0  0  0  0  0  0  0  0  0  0
    0.3485    9.0909    0.0000 C   0  0  0  0  0  0  0  0  0  0  0  0
    1.7321    8.9312    0.0000 C   0  0  0  0  0  0  0  0  0  0  0  0
    3.0751    8.5621    0.0000 C   0  0  0  0  0  0  0  0  0  0  0  0
    4.3461    7.9924    0.0000 C   0  0  0  0  0  0  0  0  0  0  0  0
    5.5152    7.2353    0.0000 C   0  0  0  0  0  0  0  0  0  0  0  0
    6.5550    6.3086    0.0000 C   0  0  0  0  0  0  0  0  0  0  0  0
    7.4412    5.2340    0.0000 C   0  0  0  0  0  0  0  0  0  0  0  0
    8.1530    4.0368    0.0000 C   0  0  0  0  0  0  0  0  0  0  0  0
    9.3410    2.9561    0.0000 C   0  0  0  0  0  0  0  0  0  0  0  0
  1  2  1  0
  2  3  1  0
  3  4  1  0
  4  5  1  0
  5  6  1  0
  6  7  1  0
  7  8  1  0
  8  9  1  0
  9 10  1  0
 10 11  1  0
 11 12  1  0
 12 13  1  0
 13 14  1  0
 14 15  1  0
 15 16  1  0
 16 17  1  0
 17 18  1  0
 18 19  1  0
 19 20  1  0
 20 21  1  0
 21 22  1  0
 22 23  1  0
 23 24  1  0
 24 25  1  0
 25 26  1  0
 26 27  1  0
 27 28  1  0
 28 29  1  0
 29 30  1  0
 30 31  1  0
 31 32  1  0
 32 33  1  0
 33 34  1  0
 34 35  1  0
 35 36  1  0
 36 37  1  0
 37 38  1  0
 38 39  1  0
 39 40  1  0
 40 41  1  0
 41 42  1  0
 42 43  1  0
 43 44  1  0
 44 45  1  0
 45 46  1  0
 46 47  1  0
 47 48  1  0
 48 49  1  0
 49 50  1  0
 50 51  1  0
 51 52  1  0
 52 53  1  0
 53 54  1  0
 54 55  1  0
 55 56  1  0
 56 57  1  0
 57 58  1  0
 58 59  1  0
 59 60  1  0
 60 61  1  0
 61 62  1  0
 62 63  1  0
 63 64  1  0
 64 65  1  0
 65 66  1  0
 66 67  1  0
 67 68  1  0
 68 69  1  0
 69 70  1  0
 70 71  1  0
 71 72  1  0
 72 73  1  0
 73 74  1  0
 74 75  1  0
 75 76  1  0
 76 77  1  0
 77 78  1  0
 78 79  1  0
 79 80  1  0
 80 81  2  0
 81 82  1  0
 82 83  2  0
 83 84  1  0
 84 85  2  0
 85 86  1  0
 86 87  2  0
 87 88  1  0
 88 89  2  0
 89 90  1  0
 90 91  2  0
 91 92  1  0
 92 93  2  0
 93 94  1  0
 94 95  2  0
 95 96  1  0
 96 97  2  0
 97 98  1  0
 98 99  2  0
 99  2  1  0
 99 59  1  0
M  END
>  <Title>  (1191) 
idABRWgen14

$$$$

     RDKit          2D

 27 30  0  0  0  0  0  0  0  0999 V2000
   -2.6401   -3.1891    0.0000 C   0  0  0  0  0  0  0  0  0  0  0  0
   -1.2135   -2.7256    0.0000 C   0  0  0  0  0  0  0  0  0  0  0  0
   -0.0000   -3.6073    0.0000 C   0  0  0  0  0  0  0  0  0  0  0  0
    1.2135   -2.7256    0.0000 C   0  0  0  0  0  0  0  0  0  0  0  0
    2.6401   -3.1891    0.0000 C   0  0  0  0  0  0  0  0  0  0  0  0
    3.7548   -2.1855    0.0000 O   0  0  0  0  0  0  0  0  0  0  0  0
    2.9520   -4.6564    0.0000 N   0  0  0  0  0  0  0  0  0  0  0  0
    4.3786   -5.1199    0.0000 C   0  0  0  0  0  0  0  0  0  0  0  0
    5.5921   -4.2382    0.0000 N   0  0  0  0  0  0  0  0  0  0  0  0
    6.8056   -5.1199    0.0000 N   0  0  0  0  0  0  0  0  0  0  0  0
    6.3421   -6.5465    0.0000 N   0  0  0  0  0  0  0  0  0  0  0  0
    4.8421   -6.5465    0.0000 N   0  0  0  0  0  0  0  0  0  0  0  0
    3.9604   -7.7600    0.0000 N   0  0  0  0  0  0  0  0  0  0  0  0
    4.4239   -9.1866    0.0000 C   0  0  0  0  0  0  0  0  0  0  0  0
    3.2104  -10.0683    0.0000 C   0  0  0  0  0  0  0  0  0  0  0  0
    1.9969   -9.1866    0.0000 N   0  0  0  0  0  0  0  0  0  0  0  0
    0.5703   -9.6501    0.0000 C   0  0  0  0  0  0  0  0  0  0  0  0
    0.2584  -11.1173    0.0000 O   0  0  0  0  0  0  0  0  0  0  0  0
   -0.5444   -8.6464    0.0000 O   0  0  0  0  0  0  0  0  0  0  0  0
    2.4604   -7.7600    0.0000 C   0  0  0  0  0  0  0  0  0  0  0  0
    1.5787   -6.5465    0.0000 O   0  0  0  0  0  0  0  0  0  0  0  0
    0.7500   -1.2990    0.0000 C   0  0  0  0  0  0  0  0  0  0  0  0
    1.5000    0.0000    0.0000 C   0  0  0  0  0  0  0  0  0  0  0  0
    0.7500    1.2990    0.0000 C   0  0  0  0  0  0  0  0  0  0  0  0
   -0.7500    1.2990    0.0000 C   0  0  0  0  0  0  0  0  0  0  0  0
   -1.5000    0.0000    0.0000 C   0  0  0  0  0  0  0  0  0  0  0  0
   -0.7500   -1.2990    0.0000 C   0  0  0  0  0  0  0  0  0  0  0  0
  1  2  1  0
  2  3  2  0
  3  4  1  0
  4  5  1  0
  5  6  2  0
  5  7  1  0
  7  8  1  0
  8  9  2  0
  9 10  1  0
 10 11  2  0
 11 12  1  0
 12 13  1  0
 13 14  1  0
 14 15  1  0
 15 16  1  0
 16 17  1  0
 17 18  2  0
 17 19  1  0
 16 20  1  0
 20 21  2  0
  4 22  1  0
 22 23  2  0
 23 24  1  0
 24 25  2  0
 25 26  1  0
 26 27  2  0
 27  2  1  0
 12  8  1  0
 20 13  1  0
 27 22  1  0
M  END
>  <Title>  (1192) 
idABRXgen14

$$$$

     RDKit          2D

 35 39  0  0  0  0  0  0  0  0999 V2000
   -3.7500   -3.8971    0.0000 C   0  0  0  0  0  0  0  0  0  0  0  0
   -3.0000   -2.5981    0.0000 O   0  0  0  0  0  0  0  0  0  0  0  0
   -1.5000   -2.5981    0.0000 C   0  0  0  0  0  0  0  0  0  0  0  0
   -0.7500   -3.8971    0.0000 C   0  0  0  0  0  0  0  0  0  0  0  0
    0.7500   -3.8971    0.0000 C   0  0  0  0  0  0  0  0  0  0  0  0
    1.5000   -2.5981    0.0000 C   0  0  0  0  0  0  0  0  0  0  0  0
    3.0000   -2.5981    0.0000 C   0  0  0  0  0  0  0  0  0  0  0  0
    3.7500   -1.2990    0.0000 O   0  0  0  0  0  0  0  0  0  0  0  0
    3.7500   -3.8971    0.0000 N   0  0  0  0  0  0  0  0  0  0  0  0
    5.2500   -3.8971    0.0000 C   0  0  0  0  0  0  0  0  0  0  0  0
    6.1317   -2.6836    0.0000 N   0  0  0  0  0  0  0  0  0  0  0  0
    7.5583   -3.1471    0.0000 N   0  0  0  0  0  0  0  0  0  0  0  0
    7.5583   -4.6471    0.0000 N   0  0  0  0  0  0  0  0  0  0  0  0
    6.1317   -5.1106    0.0000 N   0  0  0  0  0  0  0  0  0  0  0  0
    5.6682   -6.5372    0.0000 N   0  0  0  0  0  0  0  0  0  0  0  0
    6.5498   -7.7508    0.0000 C   0  0  0  0  0  0  0  0  0  0  0  0
    5.6682   -8.9643    0.0000 C   0  0  0  0  0  0  0  0  0  0  0  0
    4.2416   -8.5008    0.0000 N   0  0  0  0  0  0  0  0  0  0  0  0
    3.0280   -9.3824    0.0000 C   0  0  0  0  0  0  0  0  0  0  0  0
    3.1848  -10.8742    0.0000 O   0  0  0  0  0  0  0  0  0  0  0  0
    1.6577   -8.7723    0.0000 N   0  0  0  0  0  0  0  0  0  0  0  0
    0.4442   -9.6540    0.0000 C   0  0  0  0  0  0  0  0  0  0  0  0
   -0.9261   -9.0439    0.0000 N   0  0  0  0  0  0  0  0  0  0  0  0
   -2.1396   -9.9256    0.0000 N   0  0  0  0  0  0  0  0  0  0  0  0
   -1.9829  -11.4174    0.0000 N   0  0  0  0  0  0  0  0  0  0  0  0
   -0.6125  -12.0275    0.0000 N   0  0  0  0  0  0  0  0  0  0  0  0
    0.6010  -11.1458    0.0000 N   0  0  0  0  0  0  0  0  0  0  0  0
    4.2416   -7.0008    0.0000 C   0  0  0  0  0  0  0  0  0  0  0  0
    3.0280   -6.1191    0.0000 O   0  0  0  0  0  0  0  0  0  0  0  0
    0.7500   -1.2990    0.0000 C   0  0  0  0  0  0  0  0  0  0  0  0
    1.5000    0.0000    0.0000 C   0  0  0  0  0  0  0  0  0  0  0  0
    0.7500    1.2990    0.0000 C   0  0  0  0  0  0  0  0  0  0  0  0
   -0.7500    1.2990    0.0000 C   0  0  0  0  0  0  0  0  0  0  0  0
   -1.5000    0.0000    0.0000 C   0  0  0  0  0  0  0  0  0  0  0  0
   -0.7500   -1.2990    0.0000 C   0  0  0  0  0  0  0  0  0  0  0  0
  1  2  1  0
  2  3  1  0
  3  4  2  0
  4  5  1  0
  5  6  2  0
  6  7  1  0
  7  8  2  0
  7  9  1  0
  9 10  1  0
 10 11  2  0
 11 12  1  0
 12 13  2  0
 13 14  1  0
 14 15  1  0
 15 16  1  0
 16 17  1  0
 17 18  1  0
 18 19  1  0
 19 20  2  0
 19 21  1  0
 21 22  1  0
 22 23  2  0
 23 24  1  0
 24 25  2  0
 25 26  1  0
 26 27  2  0
 18 28  1  0
 28 29  2  0
  6 30  1  0
 30 31  2  0
 31 32  1  0
 32 33  2  0
 33 34  1  0
 34 35  2  0
 35  3  1  0
 14 10  1  0
 28 15  1  0
 35 30  1  0
 27 22  1  0
M  END
>  <Title>  (1193) 
idABRYgen14

$$$$

     RDKit          2D

 37 41  0  0  0  0  0  0  0  0999 V2000
   -3.1476   -2.1380    0.0000 C   0  0  0  0  0  0  0  0  0  0  0  0
   -1.6852   -2.4718    0.0000 C   0  0  0  0  0  0  0  0  0  0  0  0
   -1.3515   -3.9342    0.0000 C   0  0  0  0  0  0  0  0  0  0  0  0
   -0.0000   -4.5850    0.0000 C   0  0  0  0  0  0  0  0  0  0  0  0
   -0.0000   -6.0850    0.0000 C   0  0  0  0  0  0  0  0  0  0  0  0
    1.2990   -6.8350    0.0000 O   0  0  0  0  0  0  0  0  0  0  0  0
   -1.2990   -6.8350    0.0000 N   0  0  0  0  0  0  0  0  0  0  0  0
   -1.2990   -8.3350    0.0000 C   0  0  0  0  0  0  0  0  0  0  0  0
   -0.0855   -9.2167    0.0000 N   0  0  0  0  0  0  0  0  0  0  0  0
   -0.5490  -10.6433    0.0000 N   0  0  0  0  0  0  0  0  0  0  0  0
   -2.0490  -10.6433    0.0000 N   0  0  0  0  0  0  0  0  0  0  0  0
   -2.5126   -9.2167    0.0000 N   0  0  0  0  0  0  0  0  0  0  0  0
   -3.9391   -8.7532    0.0000 C   0  0  0  0  0  0  0  0  0  0  0  0
   -5.1527   -9.6348    0.0000 C   0  0  0  0  0  0  0  0  0  0  0  0
   -6.3662   -8.7532    0.0000 C   0  0  0  0  0  0  0  0  0  0  0  0
   -5.9027   -7.3266    0.0000 C   0  0  0  0  0  0  0  0  0  0  0  0
   -6.7844   -6.1130    0.0000 O   0  0  0  0  0  0  0  0  0  0  0  0
   -6.1742   -4.7427    0.0000 C   0  0  0  0  0  0  0  0  0  0  0  0
   -4.6825   -4.5859    0.0000 O   0  0  0  0  0  0  0  0  0  0  0  0
   -7.0559   -3.5292    0.0000 N   0  0  0  0  0  0  0  0  0  0  0  0
   -6.4458   -2.1589    0.0000 C   0  0  0  0  0  0  0  0  0  0  0  0
   -4.9540   -2.0021    0.0000 N   0  0  0  0  0  0  0  0  0  0  0  0
   -4.3439   -0.6318    0.0000 N   0  0  0  0  0  0  0  0  0  0  0  0
   -5.2256    0.5818    0.0000 N   0  0  0  0  0  0  0  0  0  0  0  0
   -6.7174    0.4250    0.0000 N   0  0  0  0  0  0  0  0  0  0  0  0
   -7.3275   -0.9454    0.0000 N   0  0  0  0  0  0  0  0  0  0  0  0
   -4.4027   -7.3266    0.0000 C   0  0  0  0  0  0  0  0  0  0  0  0
   -3.5210   -6.1130    0.0000 O   0  0  0  0  0  0  0  0  0  0  0  0
    1.3515   -3.9342    0.0000 C   0  0  0  0  0  0  0  0  0  0  0  0
    2.5242   -4.8694    0.0000 O   0  0  0  0  0  0  0  0  0  0  0  0
    1.6852   -2.4718    0.0000 O   0  0  0  0  0  0  0  0  0  0  0  0
    0.7500   -1.2990    0.0000 C   0  0  0  0  0  0  0  0  0  0  0  0
    1.5000    0.0000    0.0000 C   0  0  0  0  0  0  0  0  0  0  0  0
    0.7500    1.2990    0.0000 C   0  0  0  0  0  0  0  0  0  0  0  0
   -0.7500    1.2990    0.0000 C   0  0  0  0  0  0  0  0  0  0  0  0
   -1.5000    0.0000    0.0000 C   0  0  0  0  0  0  0  0  0  0  0  0
   -0.7500   -1.2990    0.0000 C   0  0  0  0  0  0  0  0  0  0  0  0
  1  2  1  0
  2  3  2  0
  3  4  1  0
  4  5  1  0
  5  6  2  0
  5  7  1  0
  7  8  1  0
  8  9  2  0
  9 10  1  0
 10 11  2  0
 11 12  1  0
 12 13  1  0
 13 14  2  0
 14 15  1  0
 15 16  2  0
 16 17  1  0
 17 18  1  0
 18 19  2  0
 18 20  1  0
 20 21  1  0
 21 22  2  0
 22 23  1  0
 23 24  2  0
 24 25  1  0
 25 26  2  0
 16 27  1  0
 27 28  2  0
  4 29  1  0
 29 30  2  0
 29 31  1  0
 31 32  1  0
 32 33  2  0
 33 34  1  0
 34 35  2  0
 35 36  1  0
 36 37  2  0
 37  2  1  0
 12  8  1  0
 27 13  1  0
 37 32  1  0
 26 21  1  0
M  END
>  <Title>  (1194) 
idABRZgen14

$$$$

     RDKit          2D

 37 41  0  0  0  0  0  0  0  0999 V2000
   -3.1965   -1.7857    0.0000 C   0  0  0  0  0  0  0  0  0  0  0  0
   -1.8107   -2.3597    0.0000 C   0  0  0  0  0  0  0  0  0  0  0  0
   -1.8107   -3.8597    0.0000 C   0  0  0  0  0  0  0  0  0  0  0  0
   -0.7500   -4.9204    0.0000 C   0  0  0  0  0  0  0  0  0  0  0  0
    0.7500   -4.9204    0.0000 C   0  0  0  0  0  0  0  0  0  0  0  0
    1.8107   -3.8597    0.0000 C   0  0  0  0  0  0  0  0  0  0  0  0
    1.8107   -2.3597    0.0000 C   0  0  0  0  0  0  0  0  0  0  0  0
    3.1965   -1.7857    0.0000 C   0  0  0  0  0  0  0  0  0  0  0  0
    3.3923   -0.2985    0.0000 O   0  0  0  0  0  0  0  0  0  0  0  0
    4.3865   -2.6988    0.0000 N   0  0  0  0  0  0  0  0  0  0  0  0
    5.7723   -2.1248    0.0000 C   0  0  0  0  0  0  0  0  0  0  0  0
    6.1225   -0.6662    0.0000 N   0  0  0  0  0  0  0  0  0  0  0  0
    7.6179   -0.5485    0.0000 N   0  0  0  0  0  0  0  0  0  0  0  0
    8.1919   -1.9344    0.0000 N   0  0  0  0  0  0  0  0  0  0  0  0
    7.0513   -2.9085    0.0000 N   0  0  0  0  0  0  0  0  0  0  0  0
    7.1690   -4.4039    0.0000 C   0  0  0  0  0  0  0  0  0  0  0  0
    8.4479   -5.1877    0.0000 C   0  0  0  0  0  0  0  0  0  0  0  0
    8.0978   -6.6462    0.0000 C   0  0  0  0  0  0  0  0  0  0  0  0
    6.6024   -6.7639    0.0000 C   0  0  0  0  0  0  0  0  0  0  0  0
    5.8186   -8.0429    0.0000 O   0  0  0  0  0  0  0  0  0  0  0  0
    4.3192   -8.0036    0.0000 C   0  0  0  0  0  0  0  0  0  0  0  0
    3.6034   -6.6854    0.0000 O   0  0  0  0  0  0  0  0  0  0  0  0
    3.5354   -9.2826    0.0000 N   0  0  0  0  0  0  0  0  0  0  0  0
    2.0359   -9.2433    0.0000 C   0  0  0  0  0  0  0  0  0  0  0  0
    1.3202   -7.9251    0.0000 N   0  0  0  0  0  0  0  0  0  0  0  0
   -0.1793   -7.8858    0.0000 N   0  0  0  0  0  0  0  0  0  0  0  0
   -0.9630   -9.1648    0.0000 N   0  0  0  0  0  0  0  0  0  0  0  0
   -0.2473  -10.4830    0.0000 N   0  0  0  0  0  0  0  0  0  0  0  0
    1.2522  -10.5223    0.0000 N   0  0  0  0  0  0  0  0  0  0  0  0
    6.0284   -5.3781    0.0000 C   0  0  0  0  0  0  0  0  0  0  0  0
    4.5698   -5.0279    0.0000 O   0  0  0  0  0  0  0  0  0  0  0  0
    0.7500   -1.2990    0.0000 C   0  0  0  0  0  0  0  0  0  0  0  0
    1.5000    0.0000    0.0000 C   0  0  0  0  0  0  0  0  0  0  0  0
    0.7500    1.2990    0.0000 C   0  0  0  0  0  0  0  0  0  0  0  0
   -0.7500    1.2990    0.0000 C   0  0  0  0  0  0  0  0  0  0  0  0
   -1.5000    0.0000    0.0000 C   0  0  0  0  0  0  0  0  0  0  0  0
   -0.7500   -1.2990    0.0000 C   0  0  0  0  0  0  0  0  0  0  0  0
  1  2  1  0
  2  3  1  0
  3  4  1  0
  4  5  1  0
  5  6  1  0
  6  7  2  0
  7  8  1  0
  8  9  2  0
  8 10  1  0
 10 11  1  0
 11 12  2  0
 12 13  1  0
 13 14  2  0
 14 15  1  0
 15 16  1  0
 16 17  2  0
 17 18  1  0
 18 19  2  0
 19 20  1  0
 20 21  1  0
 21 22  2  0
 21 23  1  0
 23 24  1  0
 24 25  2  0
 25 26  1  0
 26 27  2  0
 27 28  1  0
 28 29  2  0
 19 30  1  0
 30 31  2  0
  7 32  1  0
 32 33  2  0
 33 34  1  0
 34 35  2  0
 35 36  1  0
 36 37  2  0
 37  2  1  0
 15 11  1  0
 30 16  1  0
 37 32  1  0
 29 24  1  0
M  END
>  <Title>  (1195) 
idABSAgen14

$$$$

     RDKit          2D

 13 13  0  0  0  0  0  0  0  0999 V2000
    7.5000   -2.5981    0.0000 C   0  0  0  0  0  0  0  0  0  0  0  0
    6.0000   -2.5981    0.0000 C   0  0  0  0  0  0  0  0  0  0  0  0
    5.2500   -1.2990    0.0000 C   0  0  0  0  0  0  0  0  0  0  0  0
    3.7500   -1.2990    0.0000 C   0  0  0  0  0  0  0  0  0  0  0  0
    3.0000   -2.5981    0.0000 O   0  0  0  0  0  0  0  0  0  0  0  0
    3.0000    0.0000    0.0000 N   0  0  0  0  0  0  0  0  0  0  0  0
    1.5000    0.0000    0.0000 C   0  0  0  0  0  0  0  0  0  0  0  0
    0.7500   -1.2990    0.0000 C   0  0  0  0  0  0  0  0  0  0  0  0
   -0.7500   -1.2990    0.0000 C   0  0  0  0  0  0  0  0  0  0  0  0
   -1.5000    0.0000    0.0000 C   0  0  0  0  0  0  0  0  0  0  0  0
   -0.7500    1.2990    0.0000 C   0  0  0  0  0  0  0  0  0  0  0  0
    0.7500    1.2990    0.0000 C   0  0  0  0  0  0  0  0  0  0  0  0
    1.5000    2.5981    0.0000 C   0  0  0  0  0  0  0  0  0  0  0  0
  1  2  1  0
  2  3  1  0
  3  4  1  0
  4  5  2  0
  4  6  1  0
  6  7  1  0
  7  8  1  0
  8  9  1  0
  9 10  1  0
 10 11  1  0
 11 12  1  0
 12 13  1  0
 12  7  1  0
M  END
>  <Title>  (1196) 
idABSBgen14

$$$$

     RDKit          2D

 12 12  0  0  0  0  0  0  0  0999 V2000
   10.2760   -0.0000    0.0000 C   0  0  0  0  0  0  0  0  0  0  0  0
    8.7760   -0.0000    0.0000 C   0  0  0  0  0  0  0  0  0  0  0  0
    7.2760   -0.0000    0.0000 C   0  0  0  0  0  0  0  0  0  0  0  0
    5.7760   -0.0000    0.0000 C   0  0  0  0  0  0  0  0  0  0  0  0
    4.2760   -0.0000    0.0000 C   0  0  0  0  0  0  0  0  0  0  0  0
    2.7760    0.0000    0.0000 C   0  0  0  0  0  0  0  0  0  0  0  0
    1.2760    0.0000    0.0000 C   0  0  0  0  0  0  0  0  0  0  0  0
    0.3943    1.2135    0.0000 C   0  0  0  0  0  0  0  0  0  0  0  0
    0.8578    2.6401    0.0000 C   0  0  0  0  0  0  0  0  0  0  0  0
   -1.0323    0.7500    0.0000 C   0  0  0  0  0  0  0  0  0  0  0  0
   -1.0323   -0.7500    0.0000 C   0  0  0  0  0  0  0  0  0  0  0  0
    0.3943   -1.2135    0.0000 N   0  0  0  0  0  0  0  0  0  0  0  0
  1  2  3  0
  2  3  1  0
  3  4  3  0
  4  5  1  0
  5  6  3  0
  6  7  1  0
  7  8  2  0
  8  9  1  0
  8 10  1  0
 10 11  1  0
 11 12  2  0
 12  7  1  0
M  END
>  <Title>  (1197) 
idABSCgen14

$$$$

     RDKit          2D

125124  0  0  0  0  0  0  0  0999 V2000
    0.0000    0.0000    0.0000 C   0  0  0  0  0  0  0  0  0  0  0  0
    1.2990    0.7500    0.0000 C   0  0  0  0  0  0  0  0  0  0  0  0
    2.5981   -0.0000    0.0000 C   0  0  0  0  0  0  0  0  0  0  0  0
    3.8971    0.7500    0.0000 C   0  0  0  0  0  0  0  0  0  0  0  0
    5.1962   -0.0000    0.0000 C   0  0  0  0  0  0  0  0  0  0  0  0
    6.4952    0.7500    0.0000 C   0  0  0  0  0  0  0  0  0  0  0  0
    7.7942   -0.0000    0.0000 C   0  0  0  0  0  0  0  0  0  0  0  0
    9.0933    0.7500    0.0000 C   0  0  0  0  0  0  0  0  0  0  0  0
   10.3923   -0.0000    0.0000 C   0  0  0  0  0  0  0  0  0  0  0  0
   11.6913    0.7500    0.0000 C   0  0  0  0  0  0  0  0  0  0  0  0
   12.9904   -0.0000    0.0000 C   0  0  0  0  0  0  0  0  0  0  0  0
   14.2894    0.7500    0.0000 C   0  0  0  0  0  0  0  0  0  0  0  0
   15.5885   -0.0000    0.0000 C   0  0  0  0  0  0  0  0  0  0  0  0
   16.8875    0.7500    0.0000 C   0  0  0  0  0  0  0  0  0  0  0  0
   18.1865   -0.0000    0.0000 C   0  0  0  0  0  0  0  0  0  0  0  0
   19.4856    0.7500    0.0000 C   0  0  0  0  0  0  0  0  0  0  0  0
   20.7846   -0.0000    0.0000 C   0  0  0  0  0  0  0  0  0  0  0  0
   22.0836    0.7500    0.0000 C   0  0  0  0  0  0  0  0  0  0  0  0
   23.3827   -0.0000    0.0000 C   0  0  0  0  0  0  0  0  0  0  0  0
   24.6817    0.7500    0.0000 C   0  0  0  0  0  0  0  0  0  0  0  0
   25.9808   -0.0000    0.0000 C   0  0  0  0  0  0  0  0  0  0  0  0
   27.2798    0.7500    0.0000 C   0  0  0  0  0  0  0  0  0  0  0  0
   28.5788   -0.0000    0.0000 C   0  0  0  0  0  0  0  0  0  0  0  0
   29.8779    0.7500    0.0000 C   0  0  0  0  0  0  0  0  0  0  0  0
   31.1769   -0.0000    0.0000 C   0  0  0  0  0  0  0  0  0  0  0  0
   32.4760    0.7500    0.0000 C   0  0  0  0  0  0  0  0  0  0  0  0
   33.7750   -0.0000    0.0000 C   0  0  0  0  0  0  0  0  0  0  0  0
   35.0740    0.7500    0.0000 C   0  0  0  0  0  0  0  0  0  0  0  0
   36.3731   -0.0000    0.0000 C   0  0  0  0  0  0  0  0  0  0  0  0
   37.6721    0.7500    0.0000 C   0  0  0  0  0  0  0  0  0  0  0  0
   38.9711   -0.0000    0.0000 C   0  0  0  0  0  0  0  0  0  0  0  0
   40.2702    0.7500    0.0000 C   0  0  0  0  0  0  0  0  0  0  0  0
   41.5692   -0.0000    0.0000 C   0  0  0  0  0  0  0  0  0  0  0  0
   42.8683    0.7500    0.0000 C   0  0  0  0  0  0  0  0  0  0  0  0
   44.1673   -0.0000    0.0000 C   0  0  0  0  0  0  0  0  0  0  0  0
   45.4663    0.7500    0.0000 C   0  0  0  0  0  0  0  0  0  0  0  0
   46.7654   -0.0000    0.0000 C   0  0  0  0  0  0  0  0  0  0  0  0
   48.0644    0.7500    0.0000 C   0  0  0  0  0  0  0  0  0  0  0  0
   49.3634   -0.0000    0.0000 C   0  0  0  0  0  0  0  0  0  0  0  0
   50.6625    0.7500    0.0000 C   0  0  0  0  0  0  0  0  0  0  0  0
   51.9615   -0.0000    0.0000 C   0  0  0  0  0  0  0  0  0  0  0  0
   53.2606    0.7500    0.0000 C   0  0  0  0  0  0  0  0  0  0  0  0
   54.5596   -0.0000    0.0000 C   0  0  0  0  0  0  0  0  0  0  0  0
   55.8586    0.7500    0.0000 C   0  0  0  0  0  0  0  0  0  0  0  0
   57.1577   -0.0000    0.0000 C   0  0  0  0  0  0  0  0  0  0  0  0
   58.4567    0.7500    0.0000 C   0  0  0  0  0  0  0  0  0  0  0  0
   59.7558   -0.0000    0.0000 C   0  0  0  0  0  0  0  0  0  0  0  0
   61.0548    0.7500    0.0000 C   0  0  0  0  0  0  0  0  0  0  0  0
   62.3538   -0.0000    0.0000 C   0  0  0  0  0  0  0  0  0  0  0  0
   63.6529    0.7500    0.0000 C   0  0  0  0  0  0  0  0  0  0  0  0
   64.9519   -0.0000    0.0000 C   0  0  0  0  0  0  0  0  0  0  0  0
   66.2509    0.7500    0.0000 C   0  0  0  0  0  0  0  0  0  0  0  0
   67.5500   -0.0000    0.0000 C   0  0  0  0  0  0  0  0  0  0  0  0
   68.8490    0.7500    0.0000 C   0  0  0  0  0  0  0  0  0  0  0  0
   70.1481   -0.0000    0.0000 C   0  0  0  0  0  0  0  0  0  0  0  0
   71.4471    0.7500    0.0000 C   0  0  0  0  0  0  0  0  0  0  0  0
   72.7461   -0.0000    0.0000 C   0  0  0  0  0  0  0  0  0  0  0  0
   74.0452    0.7500    0.0000 C   0  0  0  0  0  0  0  0  0  0  0  0
   75.3442   -0.0000    0.0000 C   0  0  0  0  0  0  0  0  0  0  0  0
   76.6432    0.7500    0.0000 C   0  0  0  0  0  0  0  0  0  0  0  0
   77.9423   -0.0000    0.0000 C   0  0  0  0  0  0  0  0  0  0  0  0
   79.2413    0.7500    0.0000 C   0  0  0  0  0  0  0  0  0  0  0  0
   80.5404   -0.0000    0.0000 C   0  0  0  0  0  0  0  0  0  0  0  0
   81.8394    0.7500    0.0000 C   0  0  0  0  0  0  0  0  0  0  0  0
   83.1384   -0.0000    0.0000 C   0  0  0  0  0  0  0  0  0  0  0  0
   84.4375    0.7500    0.0000 C   0  0  0  0  0  0  0  0  0  0  0  0
   85.7365   -0.0000    0.0000 C   0  0  0  0  0  0  0  0  0  0  0  0
   87.0356    0.7500    0.0000 C   0  0  0  0  0  0  0  0  0  0  0  0
   88.3346   -0.0000    0.0000 C   0  0  0  0  0  0  0  0  0  0  0  0
   89.6336    0.7500    0.0000 C   0  0  0  0  0  0  0  0  0  0  0  0
   90.9327   -0.0000    0.0000 C   0  0  0  0  0  0  0  0  0  0  0  0
   92.2317    0.7500    0.0000 C   0  0  0  0  0  0  0  0  0  0  0  0
   93.5307   -0.0000    0.0000 C   0  0  0  0  0  0  0  0  0  0  0  0
   94.8298    0.7500    0.0000 C   0  0  0  0  0  0  0  0  0  0  0  0
   96.1288   -0.0000    0.0000 C   0  0  0  0  0  0  0  0  0  0  0  0
   97.4279    0.7500    0.0000 C   0  0  0  0  0  0  0  0  0  0  0  0
   98.7269   -0.0000    0.0000 C   0  0  0  0  0  0  0  0  0  0  0  0
  100.0259    0.7500    0.0000 C   0  0  0  0  0  0  0  0  0  0  0  0
  101.3250   -0.0000    0.0000 C   0  0  0  0  0  0  0  0  0  0  0  0
  102.6240    0.7500    0.0000 C   0  0  0  0  0  0  0  0  0  0  0  0
  103.9230   -0.0000    0.0000 C   0  0  0  0  0  0  0  0  0  0  0  0
  105.2221    0.7500    0.0000 C   0  0  0  0  0  0  0  0  0  0  0  0
  106.5211   -0.0000    0.0000 C   0  0  0  0  0  0  0  0  0  0  0  0
  107.8202    0.7500    0.0000 C   0  0  0  0  0  0  0  0  0  0  0  0
  109.1192   -0.0000    0.0000 C   0  0  0  0  0  0  0  0  0  0  0  0
  110.4182    0.7500    0.0000 C   0  0  0  0  0  0  0  0  0  0  0  0
  111.7173   -0.0000    0.0000 C   0  0  0  0  0  0  0  0  0  0  0  0
  113.0163    0.7500    0.0000 C   0  0  0  0  0  0  0  0  0  0  0  0
  114.3154   -0.0000    0.0000 C   0  0  0  0  0  0  0  0  0  0  0  0
  115.6144    0.7500    0.0000 C   0  0  0  0  0  0  0  0  0  0  0  0
  116.9134   -0.0000    0.0000 C   0  0  0  0  0  0  0  0  0  0  0  0
  118.2125    0.7500    0.0000 C   0  0  0  0  0  0  0  0  0  0  0  0
  119.5115   -0.0000    0.0000 C   0  0  0  0  0  0  0  0  0  0  0  0
  120.8105    0.7500    0.0000 C   0  0  0  0  0  0  0  0  0  0  0  0
  122.1096   -0.0000    0.0000 C   0  0  0  0  0  0  0  0  0  0  0  0
  123.4086    0.7500    0.0000 C   0  0  0  0  0  0  0  0  0  0  0  0
  124.7077   -0.0000    0.0000 C   0  0  0  0  0  0  0  0  0  0  0  0
  126.0067    0.7500    0.0000 C   0  0  0  0  0  0  0  0  0  0  0  0
  127.3057   -0.0000    0.0000 C   0  0  0  0  0  0  0  0  0  0  0  0
  128.6048    0.7500    0.0000 C   0  0  0  0  0  0  0  0  0  0  0  0
  129.9038   -0.0000    0.0000 C   0  0  0  0  0  0  0  0  0  0  0  0
  131.2028    0.7500    0.0000 C   0  0  0  0  0  0  0  0  0  0  0  0
  132.5019   -0.0000    0.0000 C   0  0  0  0  0  0  0  0  0  0  0  0
  133.8009    0.7500    0.0000 C   0  0  0  0  0  0  0  0  0  0  0  0
  135.1000   -0.0000    0.0000 C   0  0  0  0  0  0  0  0  0  0  0  0
  136.3990    0.7500    0.0000 C   0  0  0  0  0  0  0  0  0  0  0  0
  137.6980   -0.0000    0.0000 C   0  0  0  0  0  0  0  0  0  0  0  0
  138.9971    0.7500    0.0000 C   0  0  0  0  0  0  0  0  0  0  0  0
  140.2961   -0.0000    0.0000 C   0  0  0  0  0  0  0  0  0  0  0  0
  141.5952    0.7500    0.0000 C   0  0  0  0  0  0  0  0  0  0  0  0
  142.8942   -0.0000    0.0000 C   0  0  0  0  0  0  0  0  0  0  0  0
  144.1932    0.7500    0.0000 C   0  0  0  0  0  0  0  0  0  0  0  0
  145.4923   -0.0000    0.0000 C   0  0  0  0  0  0  0  0  0  0  0  0
  146.7913    0.7500    0.0000 C   0  0  0  0  0  0  0  0  0  0  0  0
  148.0903   -0.0000    0.0000 C   0  0  0  0  0  0  0  0  0  0  0  0
  149.3894    0.7500    0.0000 C   0  0  0  0  0  0  0  0  0  0  0  0
  150.6884   -0.0000    0.0000 C   0  0  0  0  0  0  0  0  0  0  0  0
  151.9875    0.7500    0.0000 C   0  0  0  0  0  0  0  0  0  0  0  0
  153.2865   -0.0000    0.0000 C   0  0  0  0  0  0  0  0  0  0  0  0
  154.5855    0.7500    0.0000 C   0  0  0  0  0  0  0  0  0  0  0  0
  155.8846   -0.0000    0.0000 C   0  0  0  0  0  0  0  0  0  0  0  0
  157.1836    0.7500    0.0000 C   0  0  0  0  0  0  0  0  0  0  0  0
  158.4826   -0.0000    0.0000 C   0  0  0  0  0  0  0  0  0  0  0  0
  159.7817    0.7500    0.0000 C   0  0  0  0  0  0  0  0  0  0  0  0
  161.0807   -0.0000    0.0000 C   0  0  0  0  0  0  0  0  0  0  0  0
  1  2  2  0
  2  3  1  0
  3  4  2  3
  4  5  1  0
  5  6  1  0
  6  7  1  0
  7  8  1  0
  8  9  1  0
  9 10  1  0
 10 11  1  0
 11 12  1  0
 12 13  1  0
 13 14  1  0
 14 15  1  0
 15 16  1  0
 16 17  1  0
 17 18  1  0
 18 19  1  0
 19 20  1  0
 20 21  1  0
 21 22  1  0
 22 23  1  0
 23 24  1  0
 24 25  1  0
 25 26  1  0
 26 27  1  0
 27 28  1  0
 28 29  1  0
 29 30  1  0
 30 31  1  0
 31 32  1  0
 32 33  1  0
 33 34  1  0
 34 35  1  0
 35 36  1  0
 36 37  1  0
 37 38  1  0
 38 39  1  0
 39 40  1  0
 40 41  1  0
 41 42  1  0
 42 43  1  0
 43 44  1  0
 44 45  1  0
 45 46  1  0
 46 47  1  0
 47 48  1  0
 48 49  1  0
 49 50  1  0
 50 51  1  0
 51 52  1  0
 52 53  1  0
 53 54  1  0
 54 55  1  0
 55 56  1  0
 56 57  1  0
 57 58  1  0
 58 59  1  0
 59 60  1  0
 60 61  1  0
 61 62  1  0
 62 63  1  0
 63 64  1  0
 64 65  1  0
 65 66  1  0
 66 67  1  0
 67 68  1  0
 68 69  1  0
 69 70  1  0
 70 71  1  0
 71 72  1  0
 72 73  1  0
 73 74  1  0
 74 75  1  0
 75 76  1  0
 76 77  1  0
 77 78  1  0
 78 79  1  0
 79 80  1  0
 80 81  1  0
 81 82  1  0
 82 83  1  0
 83 84  1  0
 84 85  1  0
 85 86  1  0
 86 87  1  0
 87 88  1  0
 88 89  1  0
 89 90  1  0
 90 91  1  0
 91 92  1  0
 92 93  1  0
 93 94  1  0
 94 95  1  0
 95 96  1  0
 96 97  1  0
 97 98  1  0
 98 99  1  0
 99100  1  0
100101  1  0
101102  1  0
102103  1  0
103104  1  0
104105  1  0
105106  1  0
106107  1  0
107108  1  0
108109  1  0
109110  1  0
110111  1  0
111112  1  0
112113  1  0
113114  1  0
114115  1  0
115116  1  0
116117  1  0
117118  1  0
118119  1  0
119120  1  0
120121  1  0
121122  1  0
122123  1  0
123124  2  3
124125  1  0
M  END
>  <Title>  (1198) 
idABSDgen14

$$$$

     RDKit          2D

 15 14  0  0  0  0  0  0  0  0999 V2000
    0.0000    0.0000    0.0000 C   0  0  0  0  0  0  0  0  0  0  0  0
    1.2990    0.7500    0.0000 C   0  0  0  0  0  0  0  0  0  0  0  0
    2.5981   -0.0000    0.0000 C   0  0  0  0  0  0  0  0  0  0  0  0
    3.8971    0.7500    0.0000 C   0  0  0  0  0  0  0  0  0  0  0  0
    5.1962   -0.0000    0.0000 C   0  0  0  0  0  0  0  0  0  0  0  0
    6.4952    0.7500    0.0000 C   0  0  0  0  0  0  0  0  0  0  0  0
    7.7942   -0.0000    0.0000 C   0  0  0  0  0  0  0  0  0  0  0  0
    9.0933    0.7500    0.0000 C   0  0  0  0  0  0  0  0  0  0  0  0
   10.3923   -0.0000    0.0000 C   0  0  0  0  0  0  0  0  0  0  0  0
    9.0933    2.2500    0.0000 N   0  0  0  0  0  0  0  0  0  0  0  0
   10.3923    3.0000    0.0000 C   0  0  0  0  0  0  0  0  0  0  0  0
   11.6913    2.2500    0.0000 O   0  0  0  0  0  0  0  0  0  0  0  0
   10.3923    4.5000    0.0000 C   0  0  0  0  0  0  0  0  0  0  0  0
   11.6913    5.2500    0.0000 C   0  0  0  0  0  0  0  0  0  0  0  0
   11.6913    6.7500    0.0000 C   0  0  0  0  0  0  0  0  0  0  0  0
  1  2  2  0
  2  3  1  0
  3  4  1  0
  4  5  1  0
  5  6  1  0
  6  7  1  0
  7  8  1  0
  8  9  1  0
  8 10  1  0
 10 11  1  0
 11 12  2  0
 11 13  1  0
 13 14  1  0
 14 15  1  0
M  END
>  <Title>  (1199) 
idABSEgen14

$$$$

     RDKit          2D

 38 42  0  0  0  0  0  0  0  0999 V2000
   -5.7723   -2.1248    0.0000 C   0  0  0  0  0  0  0  0  0  0  0  0
   -4.3865   -2.6988    0.0000 C   0  0  0  0  0  0  0  0  0  0  0  0
   -3.1965   -1.7857    0.0000 C   0  0  0  0  0  0  0  0  0  0  0  0
   -1.8107   -2.3597    0.0000 C   0  0  0  0  0  0  0  0  0  0  0  0
   -1.8107   -3.8597    0.0000 C   0  0  0  0  0  0  0  0  0  0  0  0
   -0.7500   -4.9204    0.0000 C   0  0  0  0  0  0  0  0  0  0  0  0
    0.7500   -4.9204    0.0000 C   0  0  0  0  0  0  0  0  0  0  0  0
    1.8107   -3.8597    0.0000 C   0  0  0  0  0  0  0  0  0  0  0  0
    1.8107   -2.3597    0.0000 C   0  0  0  0  0  0  0  0  0  0  0  0
    3.1965   -1.7857    0.0000 C   0  0  0  0  0  0  0  0  0  0  0  0
    3.3923   -0.2985    0.0000 O   0  0  0  0  0  0  0  0  0  0  0  0
    4.3865   -2.6988    0.0000 N   0  0  0  0  0  0  0  0  0  0  0  0
    5.7723   -2.1248    0.0000 C   0  0  0  0  0  0  0  0  0  0  0  0
    6.1225   -0.6662    0.0000 N   0  0  0  0  0  0  0  0  0  0  0  0
    7.6179   -0.5485    0.0000 N   0  0  0  0  0  0  0  0  0  0  0  0
    8.1919   -1.9344    0.0000 N   0  0  0  0  0  0  0  0  0  0  0  0
    7.0513   -2.9085    0.0000 N   0  0  0  0  0  0  0  0  0  0  0  0
    7.1690   -4.4039    0.0000 N   0  0  0  0  0  0  0  0  0  0  0  0
    8.4479   -5.1877    0.0000 C   0  0  0  0  0  0  0  0  0  0  0  0
    8.0978   -6.6462    0.0000 C   0  0  0  0  0  0  0  0  0  0  0  0
    6.6024   -6.7639    0.0000 N   0  0  0  0  0  0  0  0  0  0  0  0
    5.8186   -8.0429    0.0000 C   0  0  0  0  0  0  0  0  0  0  0  0
    6.5344   -9.3611    0.0000 O   0  0  0  0  0  0  0  0  0  0  0  0
    4.3192   -8.0036    0.0000 N   0  0  0  0  0  0  0  0  0  0  0  0
    3.5354   -9.2826    0.0000 C   0  0  0  0  0  0  0  0  0  0  0  0
    2.0359   -9.2433    0.0000 N   0  0  0  0  0  0  0  0  0  0  0  0
    1.2522  -10.5223    0.0000 N   0  0  0  0  0  0  0  0  0  0  0  0
    1.9679  -11.8405    0.0000 N   0  0  0  0  0  0  0  0  0  0  0  0
    3.4674  -11.8797    0.0000 N   0  0  0  0  0  0  0  0  0  0  0  0
    4.2512  -10.6008    0.0000 N   0  0  0  0  0  0  0  0  0  0  0  0
    6.0284   -5.3781    0.0000 C   0  0  0  0  0  0  0  0  0  0  0  0
    4.5698   -5.0279    0.0000 O   0  0  0  0  0  0  0  0  0  0  0  0
    0.7500   -1.2990    0.0000 C   0  0  0  0  0  0  0  0  0  0  0  0
    1.5000    0.0000    0.0000 C   0  0  0  0  0  0  0  0  0  0  0  0
    0.7500    1.2990    0.0000 C   0  0  0  0  0  0  0  0  0  0  0  0
   -0.7500    1.2990    0.0000 C   0  0  0  0  0  0  0  0  0  0  0  0
   -1.5000    0.0000    0.0000 C   0  0  0  0  0  0  0  0  0  0  0  0
   -0.7500   -1.2990    0.0000 C   0  0  0  0  0  0  0  0  0  0  0  0
  1  2  1  0
  2  3  1  0
  3  4  1  0
  4  5  1  0
  5  6  1  0
  6  7  1  0
  7  8  1  0
  8  9  1  0
  9 10  1  0
 10 11  2  0
 10 12  1  0
 12 13  1  0
 13 14  2  0
 14 15  1  0
 15 16  2  0
 16 17  1  0
 17 18  1  0
 18 19  1  0
 19 20  1  0
 20 21  1  0
 21 22  1  0
 22 23  2  0
 22 24  1  0
 24 25  1  0
 25 26  2  0
 26 27  1  0
 27 28  2  0
 28 29  1  0
 29 30  2  0
 21 31  1  0
 31 32  2  0
  9 33  1  0
 33 34  2  0
 34 35  1  0
 35 36  2  0
 36 37  1  0
 37 38  2  0
 38  4  1  0
 17 13  1  0
 31 18  1  0
 38 33  1  0
 30 25  1  0
M  END
>  <Title>  (1200) 
idABSFgen14

$$$$

     RDKit          2D

 44 48  0  0  0  0  0  0  0  0999 V2000
  -10.5000   -2.5981    0.0000 C   0  0  0  0  0  0  0  0  0  0  0  0
   -9.7500   -3.8971    0.0000 C   0  0  0  0  0  0  0  0  0  0  0  0
   -8.2500   -3.8971    0.0000 C   0  0  0  0  0  0  0  0  0  0  0  0
   -7.5000   -5.1962    0.0000 C   0  0  0  0  0  0  0  0  0  0  0  0
   -8.2500   -6.4952    0.0000 C   0  0  0  0  0  0  0  0  0  0  0  0
   -6.0000   -5.1962    0.0000 N   0  0  0  0  0  0  0  0  0  0  0  0
   -5.2500   -3.8971    0.0000 C   0  0  0  0  0  0  0  0  0  0  0  0
   -6.0000   -2.5981    0.0000 O   0  0  0  0  0  0  0  0  0  0  0  0
   -3.7500   -3.8971    0.0000 N   0  0  0  0  0  0  0  0  0  0  0  0
   -3.0000   -2.5981    0.0000 C   0  0  0  0  0  0  0  0  0  0  0  0
   -1.5000   -2.5981    0.0000 C   0  0  0  0  0  0  0  0  0  0  0  0
   -0.7500   -3.8971    0.0000 C   0  0  0  0  0  0  0  0  0  0  0  0
    0.7500   -3.8971    0.0000 C   0  0  0  0  0  0  0  0  0  0  0  0
    1.5000   -2.5981    0.0000 C   0  0  0  0  0  0  0  0  0  0  0  0
    3.0000   -2.5981    0.0000 O   0  0  0  0  0  0  0  0  0  0  0  0
    3.7500   -3.8971    0.0000 C   0  0  0  0  0  0  0  0  0  0  0  0
    3.0000   -5.1962    0.0000 O   0  0  0  0  0  0  0  0  0  0  0  0
    5.2500   -3.8971    0.0000 N   0  0  0  0  0  0  0  0  0  0  0  0
    6.0000   -5.1962    0.0000 C   0  0  0  0  0  0  0  0  0  0  0  0
    5.3899   -6.5665    0.0000 N   0  0  0  0  0  0  0  0  0  0  0  0
    6.5046   -7.5702    0.0000 N   0  0  0  0  0  0  0  0  0  0  0  0
    7.8037   -6.8202    0.0000 N   0  0  0  0  0  0  0  0  0  0  0  0
    7.4918   -5.3529    0.0000 N   0  0  0  0  0  0  0  0  0  0  0  0
    8.4955   -4.2382    0.0000 N   0  0  0  0  0  0  0  0  0  0  0  0
    8.1836   -2.7710    0.0000 C   0  0  0  0  0  0  0  0  0  0  0  0
    9.4826   -2.0210    0.0000 C   0  0  0  0  0  0  0  0  0  0  0  0
   10.5974   -3.0247    0.0000 N   0  0  0  0  0  0  0  0  0  0  0  0
   12.0646   -2.7128    0.0000 C   0  0  0  0  0  0  0  0  0  0  0  0
   13.0683   -3.8276    0.0000 O   0  0  0  0  0  0  0  0  0  0  0  0
   12.5281   -1.2863    0.0000 N   0  0  0  0  0  0  0  0  0  0  0  0
   11.5244   -0.1715    0.0000 C   0  0  0  0  0  0  0  0  0  0  0  0
   11.9879    1.2551    0.0000 N   0  0  0  0  0  0  0  0  0  0  0  0
   10.9842    2.3698    0.0000 N   0  0  0  0  0  0  0  0  0  0  0  0
    9.5170    2.0579    0.0000 N   0  0  0  0  0  0  0  0  0  0  0  0
    9.0535    0.6313    0.0000 N   0  0  0  0  0  0  0  0  0  0  0  0
   10.0572   -0.4834    0.0000 N   0  0  0  0  0  0  0  0  0  0  0  0
    9.9873   -4.3950    0.0000 C   0  0  0  0  0  0  0  0  0  0  0  0
   10.7373   -5.6941    0.0000 O   0  0  0  0  0  0  0  0  0  0  0  0
    0.7500   -1.2990    0.0000 C   0  0  0  0  0  0  0  0  0  0  0  0
    1.5000    0.0000    0.0000 C   0  0  0  0  0  0  0  0  0  0  0  0
    0.7500    1.2990    0.0000 C   0  0  0  0  0  0  0  0  0  0  0  0
   -0.7500    1.2990    0.0000 C   0  0  0  0  0  0  0  0  0  0  0  0
   -1.5000    0.0000    0.0000 C   0  0  0  0  0  0  0  0  0  0  0  0
   -0.7500   -1.2990    0.0000 C   0  0  0  0  0  0  0  0  0  0  0  0
  1  2  1  0
  2  3  1  0
  3  4  1  0
  4  5  1  0
  4  6  1  0
  6  7  1  0
  7  8  2  0
  7  9  1  0
  9 10  1  0
 10 11  1  0
 11 12  2  0
 12 13  1  0
 13 14  2  0
 14 15  1  0
 15 16  1  0
 16 17  2  0
 16 18  1  0
 18 19  1  0
 19 20  2  0
 20 21  1  0
 21 22  2  0
 22 23  1  0
 23 24  1  0
 24 25  1  0
 25 26  1  0
 26 27  1  0
 27 28  1  0
 28 29  2  0
 28 30  1  0
 30 31  1  0
 31 32  2  0
 32 33  1  0
 33 34  2  0
 34 35  1  0
 35 36  2  0
 27 37  1  0
 37 38  2  0
 14 39  1  0
 39 40  2  0
 40 41  1  0
 41 42  2  0
 42 43  1  0
 43 44  2  0
 44 11  1  0
 23 19  1  0
 37 24  1  0
 44 39  1  0
 36 31  1  0
M  END
>  <Title>  (1201) 
idABSGgen14

$$$$

     RDKit          2D

 27 30  0  0  0  0  0  0  0  0999 V2000
   -3.1476   -2.1380    0.0000 C   0  0  0  0  0  0  0  0  0  0  0  0
   -1.6852   -2.4718    0.0000 C   0  0  0  0  0  0  0  0  0  0  0  0
   -1.3515   -3.9342    0.0000 C   0  0  0  0  0  0  0  0  0  0  0  0
   -0.0000   -4.5850    0.0000 C   0  0  0  0  0  0  0  0  0  0  0  0
    1.3515   -3.9342    0.0000 C   0  0  0  0  0  0  0  0  0  0  0  0
    1.6852   -2.4718    0.0000 C   0  0  0  0  0  0  0  0  0  0  0  0
    3.1476   -2.1380    0.0000 C   0  0  0  0  0  0  0  0  0  0  0  0
    3.5898   -0.7046    0.0000 O   0  0  0  0  0  0  0  0  0  0  0  0
    4.1679   -3.2376    0.0000 N   0  0  0  0  0  0  0  0  0  0  0  0
    5.6303   -2.9038    0.0000 C   0  0  0  0  0  0  0  0  0  0  0  0
    6.2198   -1.5245    0.0000 N   0  0  0  0  0  0  0  0  0  0  0  0
    7.7138   -1.6590    0.0000 N   0  0  0  0  0  0  0  0  0  0  0  0
    8.0476   -3.1214    0.0000 N   0  0  0  0  0  0  0  0  0  0  0  0
    6.7599   -3.8907    0.0000 N   0  0  0  0  0  0  0  0  0  0  0  0
    6.6254   -5.3847    0.0000 C   0  0  0  0  0  0  0  0  0  0  0  0
    5.2644   -6.0152    0.0000 C   0  0  0  0  0  0  0  0  0  0  0  0
    5.1299   -7.5092    0.0000 C   0  0  0  0  0  0  0  0  0  0  0  0
    6.3565   -8.3726    0.0000 C   0  0  0  0  0  0  0  0  0  0  0  0
    6.2220   -9.8666    0.0000 O   0  0  0  0  0  0  0  0  0  0  0  0
    7.7175   -7.7421    0.0000 C   0  0  0  0  0  0  0  0  0  0  0  0
    7.8520   -6.2481    0.0000 C   0  0  0  0  0  0  0  0  0  0  0  0
    0.7500   -1.2990    0.0000 C   0  0  0  0  0  0  0  0  0  0  0  0
    1.5000    0.0000    0.0000 C   0  0  0  0  0  0  0  0  0  0  0  0
    0.7500    1.2990    0.0000 C   0  0  0  0  0  0  0  0  0  0  0  0
   -0.7500    1.2990    0.0000 C   0  0  0  0  0  0  0  0  0  0  0  0
   -1.5000    0.0000    0.0000 C   0  0  0  0  0  0  0  0  0  0  0  0
   -0.7500   -1.2990    0.0000 C   0  0  0  0  0  0  0  0  0  0  0  0
  1  2  1  0
  2  3  1  0
  3  4  1  0
  4  5  1  0
  5  6  1  0
  6  7  1  0
  7  8  2  0
  7  9  1  0
  9 10  1  0
 10 11  2  0
 11 12  1  0
 12 13  2  0
 13 14  1  0
 14 15  1  0
 15 16  2  0
 16 17  1  0
 17 18  2  0
 18 19  1  0
 18 20  1  0
 20 21  2  0
  6 22  1  0
 22 23  2  0
 23 24  1  0
 24 25  2  0
 25 26  1  0
 26 27  2  0
 27  2  1  0
 14 10  1  0
 21 15  1  0
 27 22  1  0
M  END
>  <Title>  (1202) 
idABSHgen14

$$$$

     RDKit          2D

 11 11  0  0  0  0  0  0  0  0999 V2000
    5.7760   -2.5981    0.0000 C   0  0  0  0  0  0  0  0  0  0  0  0
    5.0260   -1.2990    0.0000 C   0  0  0  0  0  0  0  0  0  0  0  0
    5.7760    0.0000    0.0000 C   0  0  0  0  0  0  0  0  0  0  0  0
    3.5260   -1.2990    0.0000 C   0  0  0  0  0  0  0  0  0  0  0  0
    2.7760   -2.5981    0.0000 O   0  0  0  0  0  0  0  0  0  0  0  0
    2.7760    0.0000    0.0000 N   0  0  0  0  0  0  0  0  0  0  0  0
    1.2760    0.0000    0.0000 C   0  0  0  0  0  0  0  0  0  0  0  0
    0.3943    1.2135    0.0000 N   0  0  0  0  0  0  0  0  0  0  0  0
   -1.0323    0.7500    0.0000 S   0  0  0  0  0  0  0  0  0  0  0  0
   -1.0323   -0.7500    0.0000 C   0  0  0  0  0  0  0  0  0  0  0  0
    0.3943   -1.2135    0.0000 N   0  0  0  0  0  0  0  0  0  0  0  0
  1  2  1  0
  2  3  1  0
  2  4  1  0
  4  5  2  0
  4  6  1  0
  6  7  1  0
  7  8  2  0
  8  9  1  0
  9 10  1  0
 10 11  2  0
 11  7  1  0
M  END
>  <Title>  (1203) 
idABSIgen14

$$$$

     RDKit          2D

 88 89  0  0  0  0  0  0  0  0999 V2000
    8.6574   -4.4330    0.0000 C   0  0  0  0  0  0  0  0  0  0  0  0
    9.4544   -4.4520    0.0000 C   0  0  0  0  0  0  0  0  0  0  0  0
    9.5188   -5.9506    0.0000 C   0  0  0  0  0  0  0  0  0  0  0  0
    9.7824   -7.4273    0.0000 C   0  0  0  0  0  0  0  0  0  0  0  0
   10.2405   -8.8556    0.0000 C   0  0  0  0  0  0  0  0  0  0  0  0
   10.8848  -10.2102    0.0000 C   0  0  0  0  0  0  0  0  0  0  0  0
   11.7040  -11.4668    0.0000 C   0  0  0  0  0  0  0  0  0  0  0  0
   12.6833  -12.6029    0.0000 C   0  0  0  0  0  0  0  0  0  0  0  0
   13.8054  -13.5985    0.0000 C   0  0  0  0  0  0  0  0  0  0  0  0
   15.0501  -14.4355    0.0000 C   0  0  0  0  0  0  0  0  0  0  0  0
   16.3953  -15.0992    0.0000 C   0  0  0  0  0  0  0  0  0  0  0  0
   17.8169  -15.5777    0.0000 C   0  0  0  0  0  0  0  0  0  0  0  0
   19.2896  -15.8624    0.0000 C   0  0  0  0  0  0  0  0  0  0  0  0
   20.7872  -15.9483    0.0000 C   0  0  0  0  0  0  0  0  0  0  0  0
   22.2828  -15.8339    0.0000 C   0  0  0  0  0  0  0  0  0  0  0  0
   23.7498  -15.5211    0.0000 C   0  0  0  0  0  0  0  0  0  0  0  0
   25.1620  -15.0155    0.0000 C   0  0  0  0  0  0  0  0  0  0  0  0
   26.4943  -14.3262    0.0000 C   0  0  0  0  0  0  0  0  0  0  0  0
   27.7228  -13.4656    0.0000 C   0  0  0  0  0  0  0  0  0  0  0  0
   28.8256  -12.4488    0.0000 C   0  0  0  0  0  0  0  0  0  0  0  0
   29.7831  -11.2941    0.0000 C   0  0  0  0  0  0  0  0  0  0  0  0
   30.5781  -10.0221    0.0000 C   0  0  0  0  0  0  0  0  0  0  0  0
   31.1965   -8.6555    0.0000 C   0  0  0  0  0  0  0  0  0  0  0  0
   31.6272   -7.2187    0.0000 C   0  0  0  0  0  0  0  0  0  0  0  0
   31.8626   -5.7373    0.0000 C   0  0  0  0  0  0  0  0  0  0  0  0
   31.8984   -4.2377    0.0000 C   0  0  0  0  0  0  0  0  0  0  0  0
   31.7340   -2.7467    0.0000 C   0  0  0  0  0  0  0  0  0  0  0  0
   31.3723   -1.2910    0.0000 C   0  0  0  0  0  0  0  0  0  0  0  0
   30.8199    0.1036    0.0000 C   0  0  0  0  0  0  0  0  0  0  0  0
   30.0865    1.4120    0.0000 C   0  0  0  0  0  0  0  0  0  0  0  0
   29.1852    2.6111    0.0000 C   0  0  0  0  0  0  0  0  0  0  0  0
   28.1322    3.6793    0.0000 C   0  0  0  0  0  0  0  0  0  0  0  0
   26.9461    4.5977    0.0000 C   0  0  0  0  0  0  0  0  0  0  0  0
   25.6483    5.3497    0.0000 C   0  0  0  0  0  0  0  0  0  0  0  0
   24.2618    5.9221    0.0000 C   0  0  0  0  0  0  0  0  0  0  0  0
   22.8114    6.3046    0.0000 C   0  0  0  0  0  0  0  0  0  0  0  0
   21.3229    6.4903    0.0000 C   0  0  0  0  0  0  0  0  0  0  0  0
   19.8230    6.4760    0.0000 C   0  0  0  0  0  0  0  0  0  0  0  0
   18.3384    6.2619    0.0000 C   0  0  0  0  0  0  0  0  0  0  0  0
   16.8955    5.8518    0.0000 C   0  0  0  0  0  0  0  0  0  0  0  0
   15.5202    5.2530    0.0000 C   0  0  0  0  0  0  0  0  0  0  0  0
   14.2369    4.4763    0.0000 C   0  0  0  0  0  0  0  0  0  0  0  0
   13.0687    3.5355    0.0000 C   0  0  0  0  0  0  0  0  0  0  0  0
   12.0362    2.4473    0.0000 C   0  0  0  0  0  0  0  0  0  0  0  0
   11.1580    1.2313    0.0000 C   0  0  0  0  0  0  0  0  0  0  0  0
   10.4497   -0.0910    0.0000 C   0  0  0  0  0  0  0  0  0  0  0  0
    9.9240   -1.4958    0.0000 C   0  0  0  0  0  0  0  0  0  0  0  0
    9.3361    0.0000    0.0000 C   0  0  0  0  0  0  0  0  0  0  0  0
    9.2318    1.3915    0.0000 C   0  0  0  0  0  0  0  0  0  0  0  0
    8.9213    2.7519    0.0000 C   0  0  0  0  0  0  0  0  0  0  0  0
    8.4116    4.0508    0.0000 C   0  0  0  0  0  0  0  0  0  0  0  0
    7.7139    5.2592    0.0000 C   0  0  0  0  0  0  0  0  0  0  0  0
    6.8439    6.3502    0.0000 C   0  0  0  0  0  0  0  0  0  0  0  0
    5.8210    7.2993    0.0000 C   0  0  0  0  0  0  0  0  0  0  0  0
    4.6681    8.0853    0.0000 C   0  0  0  0  0  0  0  0  0  0  0  0
    3.4109    8.6907    0.0000 C   0  0  0  0  0  0  0  0  0  0  0  0
    2.0775    9.1020    0.0000 C   0  0  0  0  0  0  0  0  0  0  0  0
    0.6977    9.3100    0.0000 C   0  0  0  0  0  0  0  0  0  0  0  0
   -0.6977    9.3100    0.0000 C   0  0  0  0  0  0  0  0  0  0  0  0
   -2.0775    9.1020    0.0000 C   0  0  0  0  0  0  0  0  0  0  0  0
   -3.4109    8.6907    0.0000 C   0  0  0  0  0  0  0  0  0  0  0  0
   -4.6681    8.0853    0.0000 C   0  0  0  0  0  0  0  0  0  0  0  0
   -5.8210    7.2993    0.0000 C   0  0  0  0  0  0  0  0  0  0  0  0
   -6.8439    6.3502    0.0000 C   0  0  0  0  0  0  0  0  0  0  0  0
   -7.7139    5.2592    0.0000 C   0  0  0  0  0  0  0  0  0  0  0  0
   -8.4116    4.0508    0.0000 C   0  0  0  0  0  0  0  0  0  0  0  0
   -8.9213    2.7519    0.0000 C   0  0  0  0  0  0  0  0  0  0  0  0
   -9.2318    1.3915    0.0000 C   0  0  0  0  0  0  0  0  0  0  0  0
   -9.3361   -0.0000    0.0000 C   0  0  0  0  0  0  0  0  0  0  0  0
   -9.2318   -1.3915    0.0000 C   0  0  0  0  0  0  0  0  0  0  0  0
   -8.9213   -2.7519    0.0000 C   0  0  0  0  0  0  0  0  0  0  0  0
   -8.4116   -4.0508    0.0000 C   0  0  0  0  0  0  0  0  0  0  0  0
   -7.7139   -5.2592    0.0000 C   0  0  0  0  0  0  0  0  0  0  0  0
   -6.8439   -6.3502    0.0000 C   0  0  0  0  0  0  0  0  0  0  0  0
   -5.8210   -7.2993    0.0000 C   0  0  0  0  0  0  0  0  0  0  0  0
   -4.6681   -8.0853    0.0000 C   0  0  0  0  0  0  0  0  0  0  0  0
   -3.4109   -8.6907    0.0000 C   0  0  0  0  0  0  0  0  0  0  0  0
   -2.0775   -9.1020    0.0000 C   0  0  0  0  0  0  0  0  0  0  0  0
   -0.6977   -9.3100    0.0000 C   0  0  0  0  0  0  0  0  0  0  0  0
    0.6977   -9.3100    0.0000 C   0  0  0  0  0  0  0  0  0  0  0  0
    2.0775   -9.1020    0.0000 C   0  0  0  0  0  0  0  0  0  0  0  0
    3.4109   -8.6907    0.0000 C   0  0  0  0  0  0  0  0  0  0  0  0
    4.6681   -8.0853    0.0000 C   0  0  0  0  0  0  0  0  0  0  0  0
    5.8210   -7.2993    0.0000 C   0  0  0  0  0  0  0  0  0  0  0  0
    6.8439   -6.3502    0.0000 C   0  0  0  0  0  0  0  0  0  0  0  0
    7.7139   -5.2592    0.0000 C   0  0  0  0  0  0  0  0  0  0  0  0
    8.4116   -4.0508    0.0000 C   0  0  0  0  0  0  0  0  0  0  0  0
    9.5902   -2.9582    0.0000 C   0  0  0  0  0  0  0  0  0  0  0  0
  1  2  1  0
  2  3  1  0
  3  4  1  0
  4  5  1  0
  5  6  1  0
  6  7  1  0
  7  8  1  0
  8  9  1  0
  9 10  1  0
 10 11  1  0
 11 12  1  0
 12 13  1  0
 13 14  1  0
 14 15  1  0
 15 16  1  0
 16 17  1  0
 17 18  1  0
 18 19  1  0
 19 20  1  0
 20 21  1  0
 21 22  1  0
 22 23  1  0
 23 24  1  0
 24 25  1  0
 25 26  1  0
 26 27  1  0
 27 28  1  0
 28 29  1  0
 29 30  1  0
 30 31  1  0
 31 32  1  0
 32 33  1  0
 33 34  1  0
 34 35  1  0
 35 36  1  0
 36 37  1  0
 37 38  1  0
 38 39  1  0
 39 40  1  0
 40 41  1  0
 41 42  1  0
 42 43  1  0
 43 44  1  0
 44 45  1  0
 45 46  1  0
 46 47  1  0
 47 48  1  0
 48 49  1  0
 49 50  1  0
 50 51  1  0
 51 52  2  0
 52 53  1  0
 53 54  2  0
 54 55  1  0
 55 56  2  0
 56 57  1  0
 57 58  2  0
 58 59  1  0
 59 60  2  0
 60 61  1  0
 61 62  2  0
 62 63  1  0
 63 64  2  0
 64 65  1  0
 65 66  2  0
 66 67  1  0
 67 68  2  0
 68 69  1  0
 69 70  2  0
 70 71  1  0
 71 72  2  0
 72 73  1  0
 73 74  2  0
 74 75  1  0
 75 76  2  0
 76 77  1  0
 77 78  2  0
 78 79  1  0
 79 80  2  0
 80 81  1  0
 81 82  2  0
 82 83  1  0
 83 84  2  0
 84 85  1  0
 85 86  2  0
 86 87  1  0
 87 88  2  0
 88  2  1  0
 88 47  1  0
M  END
>  <Title>  (1204) 
idABSJgen14

$$$$

     RDKit          2D

 17 18  0  0  0  0  0  0  0  0999 V2000
   -7.9134   -5.8396    0.0000 C   0  0  0  0  0  0  0  0  0  0  0  0
   -6.4462   -5.5277    0.0000 C   0  0  0  0  0  0  0  0  0  0  0  0
   -4.9790   -5.2159    0.0000 C   0  0  0  0  0  0  0  0  0  0  0  0
   -3.5118   -4.9040    0.0000 C   0  0  0  0  0  0  0  0  0  0  0  0
   -2.0445   -4.5921    0.0000 C   0  0  0  0  0  0  0  0  0  0  0  0
   -0.5773   -4.2803    0.0000 C   0  0  0  0  0  0  0  0  0  0  0  0
    0.8899   -3.9684    0.0000 C   0  0  0  0  0  0  0  0  0  0  0  0
    2.0046   -4.9721    0.0000 N   0  0  0  0  0  0  0  0  0  0  0  0
    3.3037   -4.2221    0.0000 N   0  0  0  0  0  0  0  0  0  0  0  0
    2.9918   -2.7549    0.0000 C   0  0  0  0  0  0  0  0  0  0  0  0
    1.5000   -2.5981    0.0000 N   0  0  0  0  0  0  0  0  0  0  0  0
    0.7500   -1.2990    0.0000 C   0  0  0  0  0  0  0  0  0  0  0  0
    1.5000    0.0000    0.0000 C   0  0  0  0  0  0  0  0  0  0  0  0
    0.7500    1.2990    0.0000 C   0  0  0  0  0  0  0  0  0  0  0  0
   -0.7500    1.2990    0.0000 C   0  0  0  0  0  0  0  0  0  0  0  0
   -1.5000    0.0000    0.0000 C   0  0  0  0  0  0  0  0  0  0  0  0
   -0.7500   -1.2990    0.0000 C   0  0  0  0  0  0  0  0  0  0  0  0
  1  2  3  0
  2  3  1  0
  3  4  3  0
  4  5  1  0
  5  6  3  0
  6  7  1  0
  7  8  2  0
  8  9  1  0
  9 10  2  0
 10 11  1  0
 11 12  1  0
 12 13  2  0
 13 14  1  0
 14 15  2  0
 15 16  1  0
 16 17  2  0
 11  7  1  0
 17 12  1  0
M  END
>  <Title>  (1205) 
idABSKgen14

$$$$

     RDKit          2D

 35 39  0  0  0  0  0  0  0  0999 V2000
   -3.1476   -2.1380    0.0000 C   0  0  0  0  0  0  0  0  0  0  0  0
   -1.6852   -2.4718    0.0000 C   0  0  0  0  0  0  0  0  0  0  0  0
   -1.3515   -3.9342    0.0000 C   0  0  0  0  0  0  0  0  0  0  0  0
   -0.0000   -4.5850    0.0000 C   0  0  0  0  0  0  0  0  0  0  0  0
    1.3515   -3.9342    0.0000 C   0  0  0  0  0  0  0  0  0  0  0  0
    1.6852   -2.4718    0.0000 C   0  0  0  0  0  0  0  0  0  0  0  0
    3.1476   -2.1380    0.0000 C   0  0  0  0  0  0  0  0  0  0  0  0
    3.5898   -0.7046    0.0000 O   0  0  0  0  0  0  0  0  0  0  0  0
    4.1679   -3.2376    0.0000 N   0  0  0  0  0  0  0  0  0  0  0  0
    5.6303   -2.9038    0.0000 C   0  0  0  0  0  0  0  0  0  0  0  0
    6.2198   -1.5245    0.0000 N   0  0  0  0  0  0  0  0  0  0  0  0
    7.7138   -1.6590    0.0000 N   0  0  0  0  0  0  0  0  0  0  0  0
    8.0476   -3.1214    0.0000 N   0  0  0  0  0  0  0  0  0  0  0  0
    6.7599   -3.8907    0.0000 N   0  0  0  0  0  0  0  0  0  0  0  0
    6.6254   -5.3847    0.0000 N   0  0  0  0  0  0  0  0  0  0  0  0
    7.7550   -6.3716    0.0000 C   0  0  0  0  0  0  0  0  0  0  0  0
    7.1655   -7.7509    0.0000 C   0  0  0  0  0  0  0  0  0  0  0  0
    5.6715   -7.6164    0.0000 N   0  0  0  0  0  0  0  0  0  0  0  0
    4.6846   -8.7460    0.0000 C   0  0  0  0  0  0  0  0  0  0  0  0
    5.1694  -10.1655    0.0000 O   0  0  0  0  0  0  0  0  0  0  0  0
    3.2129   -8.4561    0.0000 N   0  0  0  0  0  0  0  0  0  0  0  0
    2.2260   -9.5857    0.0000 C   0  0  0  0  0  0  0  0  0  0  0  0
    0.7543   -9.2959    0.0000 N   0  0  0  0  0  0  0  0  0  0  0  0
   -0.2326  -10.4255    0.0000 N   0  0  0  0  0  0  0  0  0  0  0  0
    0.2522  -11.8450    0.0000 N   0  0  0  0  0  0  0  0  0  0  0  0
    1.7239  -12.1348    0.0000 N   0  0  0  0  0  0  0  0  0  0  0  0
    2.7108  -11.0052    0.0000 N   0  0  0  0  0  0  0  0  0  0  0  0
    5.3378   -6.1540    0.0000 C   0  0  0  0  0  0  0  0  0  0  0  0
    3.9585   -5.5645    0.0000 O   0  0  0  0  0  0  0  0  0  0  0  0
    0.7500   -1.2990    0.0000 C   0  0  0  0  0  0  0  0  0  0  0  0
    1.5000    0.0000    0.0000 C   0  0  0  0  0  0  0  0  0  0  0  0
    0.7500    1.2990    0.0000 C   0  0  0  0  0  0  0  0  0  0  0  0
   -0.7500    1.2990    0.0000 C   0  0  0  0  0  0  0  0  0  0  0  0
   -1.5000    0.0000    0.0000 C   0  0  0  0  0  0  0  0  0  0  0  0
   -0.7500   -1.2990    0.0000 C   0  0  0  0  0  0  0  0  0  0  0  0
  1  2  1  0
  2  3  1  0
  3  4  1  0
  4  5  1  0
  5  6  2  0
  6  7  1  0
  7  8  2  0
  7  9  1  0
  9 10  1  0
 10 11  2  0
 11 12  1  0
 12 13  2  0
 13 14  1  0
 14 15  1  0
 15 16  1  0
 16 17  1  0
 17 18  1  0
 18 19  1  0
 19 20  2  0
 19 21  1  0
 21 22  1  0
 22 23  2  0
 23 24  1  0
 24 25  2  0
 25 26  1  0
 26 27  2  0
 18 28  1  0
 28 29  2  0
  6 30  1  0
 30 31  2  0
 31 32  1  0
 32 33  2  0
 33 34  1  0
 34 35  2  0
 35  2  1  0
 14 10  1  0
 28 15  1  0
 35 30  1  0
 27 22  1  0
M  END
>  <Title>  (1206) 
idABSLgen14

$$$$

     RDKit          2D

 11 12  0  0  0  0  0  0  0  0999 V2000
    2.7760    0.0000    0.0000 C   0  0  0  0  0  0  0  0  0  0  0  0
    1.2760    0.0000    0.0000 C   0  0  0  0  0  0  0  0  0  0  0  0
    0.3943    1.2135    0.0000 C   0  0  0  0  0  0  0  0  0  0  0  0
   -1.0323    0.7500    0.0000 C   0  0  0  0  0  0  0  0  0  0  0  0
   -1.0323   -0.7500    0.0000 C   0  0  0  0  0  0  0  0  0  0  0  0
    0.3943   -1.2135    0.0000 C   0  0  0  0  0  0  0  0  0  0  0  0
    0.8578   -2.6401    0.0000 N   0  0  0  0  0  0  0  0  0  0  0  0
    2.2844   -3.1036    0.0000 C   0  0  0  0  0  0  0  0  0  0  0  0
    2.2844   -4.6036    0.0000 C   0  0  0  0  0  0  0  0  0  0  0  0
    0.8578   -5.0672    0.0000 C   0  0  0  0  0  0  0  0  0  0  0  0
   -0.0239   -3.8536    0.0000 C   0  0  0  0  0  0  0  0  0  0  0  0
  1  2  1  0
  2  3  1  0
  3  4  1  0
  4  5  1  0
  5  6  1  0
  6  7  1  0
  7  8  1  0
  8  9  2  0
  9 10  1  0
 10 11  2  0
  6  2  1  0
 11  7  1  0
M  END
>  <Title>  (1207) 
idABSMgen14

$$$$

     RDKit          2D

  5  4  0  0  0  0  0  0  0  0999 V2000
    0.0000    0.0000    0.0000 C   0  0  0  0  0  0  0  0  0  0  0  0
    1.2990    0.7500    0.0000 C   0  0  0  0  0  0  0  0  0  0  0  0
    2.5981   -0.0000    0.0000 C   0  0  0  0  0  0  0  0  0  0  0  0
    3.8971    0.7500    0.0000 C   0  0  0  0  0  0  0  0  0  0  0  0
    5.1962    1.5000    0.0000 N   0  0  0  0  0  0  0  0  0  0  0  0
  1  2  1  0
  2  3  1  0
  3  4  1  0
  4  5  3  0
M  END
>  <Title>  (1208) 
idABSNgen14

$$$$

     RDKit          2D

 16 17  0  0  0  0  0  0  0  0999 V2000
    3.0000   -5.1962    0.0000 O   0  0  0  0  0  0  0  0  0  0  0  0
    1.5000   -5.1962    0.0000 C   0  0  0  0  0  0  0  0  0  0  0  0
    0.7500   -6.4952    0.0000 C   0  0  0  0  0  0  0  0  0  0  0  0
    1.5000   -7.7942    0.0000 C   0  0  0  0  0  0  0  0  0  0  0  0
    2.9918   -7.9510    0.0000 C   0  0  0  0  0  0  0  0  0  0  0  0
    3.3037   -9.4182    0.0000 S   0  0  0  0  0  0  0  0  0  0  0  0
    2.0046  -10.1682    0.0000 C   0  0  0  0  0  0  0  0  0  0  0  0
    0.8899   -9.1645    0.0000 N   0  0  0  0  0  0  0  0  0  0  0  0
    0.7500   -3.8971    0.0000 N   0  0  0  0  0  0  0  0  0  0  0  0
    1.5000   -2.5981    0.0000 C   0  0  0  0  0  0  0  0  0  0  0  0
    0.7500   -1.2990    0.0000 C   0  0  0  0  0  0  0  0  0  0  0  0
    1.5000    0.0000    0.0000 C   0  0  0  0  0  0  0  0  0  0  0  0
    0.7500    1.2990    0.0000 C   0  0  0  0  0  0  0  0  0  0  0  0
   -0.7500    1.2990    0.0000 C   0  0  0  0  0  0  0  0  0  0  0  0
   -1.5000    0.0000    0.0000 N   0  0  0  0  0  0  0  0  0  0  0  0
   -0.7500   -1.2990    0.0000 C   0  0  0  0  0  0  0  0  0  0  0  0
  1  2  1  0
  2  3  1  0
  3  4  1  0
  4  5  2  0
  5  6  1  0
  6  7  1  0
  7  8  2  0
  2  9  1  0
  9 10  1  0
 10 11  1  0
 11 12  2  0
 12 13  1  0
 13 14  2  0
 14 15  1  0
 15 16  2  0
  8  4  1  0
 16 11  1  0
M  END
>  <Title>  (1209) 
idABSOgen14

$$$$

     RDKit          2D

  7  6  0  0  0  0  0  0  0  0999 V2000
    0.0000    0.0000    0.0000 C   0  0  0  0  0  0  0  0  0  0  0  0
    1.2990    0.7500    0.0000 C   0  0  0  0  0  0  0  0  0  0  0  0
    2.5981   -0.0000    0.0000 C   0  0  0  0  0  0  0  0  0  0  0  0
    3.8971    0.7500    0.0000 C   0  0  0  0  0  0  0  0  0  0  0  0
    5.1962   -0.0000    0.0000 C   0  0  0  0  0  0  0  0  0  0  0  0
    6.4952    0.7500    0.0000 C   0  0  0  0  0  0  0  0  0  0  0  0
    7.7942   -0.0000    0.0000 C   0  0  0  0  0  0  0  0  0  0  0  0
  1  2  2  0
  2  3  1  0
  3  4  1  0
  4  5  1  0
  5  6  2  3
  6  7  1  0
M  END
>  <Title>  (1210) 
idABSPgen14

$$$$

     RDKit          2D

 23 25  0  0  0  0  0  0  0  0999 V2000
    3.2286   -0.0000    0.0000 C   0  0  0  0  0  0  0  0  0  0  0  0
    1.7286    0.0000    0.0000 C   0  0  0  0  0  0  0  0  0  0  0  0
    1.0777    1.3515    0.0000 C   0  0  0  0  0  0  0  0  0  0  0  0
   -0.3846    1.6852    0.0000 C   0  0  0  0  0  0  0  0  0  0  0  0
   -1.5574    0.7500    0.0000 C   0  0  0  0  0  0  0  0  0  0  0  0
   -2.9088    1.4008    0.0000 C   0  0  0  0  0  0  0  0  0  0  0  0
   -4.1482    0.5558    0.0000 O   0  0  0  0  0  0  0  0  0  0  0  0
   -3.0209    2.8966    0.0000 N   0  0  0  0  0  0  0  0  0  0  0  0
   -4.3724    3.5475    0.0000 C   0  0  0  0  0  0  0  0  0  0  0  0
   -5.6933    2.8367    0.0000 N   0  0  0  0  0  0  0  0  0  0  0  0
   -6.7775    3.8732    0.0000 N   0  0  0  0  0  0  0  0  0  0  0  0
   -6.1267    5.2247    0.0000 N   0  0  0  0  0  0  0  0  0  0  0  0
   -4.6402    5.0234    0.0000 N   0  0  0  0  0  0  0  0  0  0  0  0
   -3.6036    6.1075    0.0000 C   0  0  0  0  0  0  0  0  0  0  0  0
   -2.1464    5.7519    0.0000 C   0  0  0  0  0  0  0  0  0  0  0  0
   -1.1098    6.8361    0.0000 C   0  0  0  0  0  0  0  0  0  0  0  0
   -1.5304    8.2759    0.0000 C   0  0  0  0  0  0  0  0  0  0  0  0
   -0.4939    9.3601    0.0000 O   0  0  0  0  0  0  0  0  0  0  0  0
   -2.9877    8.6315    0.0000 C   0  0  0  0  0  0  0  0  0  0  0  0
   -4.0243    7.5474    0.0000 C   0  0  0  0  0  0  0  0  0  0  0  0
   -1.5574   -0.7500    0.0000 C   0  0  0  0  0  0  0  0  0  0  0  0
   -0.3846   -1.6852    0.0000 C   0  0  0  0  0  0  0  0  0  0  0  0
    1.0777   -1.3515    0.0000 C   0  0  0  0  0  0  0  0  0  0  0  0
  1  2  1  0
  2  3  1  0
  3  4  2  0
  4  5  1  0
  5  6  1  0
  6  7  2  0
  6  8  1  0
  8  9  1  0
  9 10  2  0
 10 11  1  0
 11 12  2  0
 12 13  1  0
 13 14  1  0
 14 15  2  0
 15 16  1  0
 16 17  2  0
 17 18  1  0
 17 19  1  0
 19 20  2  0
  5 21  1  0
 21 22  1  0
 22 23  1  0
 23  2  1  0
 13  9  1  0
 20 14  1  0
M  END
>  <Title>  (1211) 
idABSQgen14

$$$$

     RDKit          2D

  5  4  0  0  0  0  0  0  0  0999 V2000
    0.0000    0.0000    0.0000 C   0  0  0  0  0  0  0  0  0  0  0  0
    1.2990    0.7500    0.0000 N   0  0  0  0  0  0  0  0  0  0  0  0
    2.5981   -0.0000    0.0000 C   0  0  0  0  0  0  0  0  0  0  0  0
    3.8971    0.7500    0.0000 C   0  0  0  0  0  0  0  0  0  0  0  0
    2.5981   -1.5000    0.0000 C   0  0  0  0  0  0  0  0  0  0  0  0
  1  2  1  0
  2  3  1  0
  3  4  1  0
  3  5  1  0
M  END
>  <Title>  (1212) 
idABSRgen14

$$$$

     RDKit          2D

 11 11  0  0  0  0  0  0  0  0999 V2000
    6.0000   -2.5981    0.0000 C   0  0  0  0  0  0  0  0  0  0  0  0
    5.2500   -1.2990    0.0000 C   0  0  0  0  0  0  0  0  0  0  0  0
    6.0000    0.0000    0.0000 C   0  0  0  0  0  0  0  0  0  0  0  0
    3.7500   -1.2990    0.0000 C   0  0  0  0  0  0  0  0  0  0  0  0
    3.0000    0.0000    0.0000 O   0  0  0  0  0  0  0  0  0  0  0  0
    1.5000    0.0000    0.0000 C   0  0  0  0  0  0  0  0  0  0  0  0
    0.7500   -1.2990    0.0000 C   0  0  0  0  0  0  0  0  0  0  0  0
   -0.7500   -1.2990    0.0000 C   0  0  0  0  0  0  0  0  0  0  0  0
   -1.5000    0.0000    0.0000 C   0  0  0  0  0  0  0  0  0  0  0  0
   -0.7500    1.2990    0.0000 N   0  0  0  0  0  0  0  0  0  0  0  0
    0.7500    1.2990    0.0000 C   0  0  0  0  0  0  0  0  0  0  0  0
  1  2  1  0
  2  3  1  0
  2  4  1  0
  4  5  1  0
  5  6  1  0
  6  7  2  0
  7  8  1  0
  8  9  2  0
  9 10  1  0
 10 11  2  0
 11  6  1  0
M  END
>  <Title>  (1213) 
idABSSgen14

$$$$

     RDKit          2D

 18 17  0  0  0  0  0  0  0  0999 V2000
    0.0000    0.0000    0.0000 C   0  0  0  0  0  0  0  0  0  0  0  0
    1.2990    0.7500    0.0000 C   0  0  0  0  0  0  0  0  0  0  0  0
    2.5981   -0.0000    0.0000 C   0  0  0  0  0  0  0  0  0  0  0  0
    3.8971    0.7500    0.0000 C   0  0  0  0  0  0  0  0  0  0  0  0
    5.1962   -0.0000    0.0000 C   0  0  0  0  0  0  0  0  0  0  0  0
    6.4952    0.7500    0.0000 C   0  0  0  0  0  0  0  0  0  0  0  0
    7.7942   -0.0000    0.0000 C   0  0  0  0  0  0  0  0  0  0  0  0
    9.0933    0.7500    0.0000 C   0  0  0  0  0  0  0  0  0  0  0  0
   10.3923   -0.0000    0.0000 N   0  0  0  0  0  0  0  0  0  0  0  0
   11.6913    0.7500    0.0000 C   0  0  0  0  0  0  0  0  0  0  0  0
   11.6913    2.2500    0.0000 O   0  0  0  0  0  0  0  0  0  0  0  0
   12.9904   -0.0000    0.0000 N   0  0  0  0  0  0  0  0  0  0  0  0
   14.2894    0.7500    0.0000 C   0  0  0  0  0  0  0  0  0  0  0  0
   15.5885   -0.0000    0.0000 C   0  0  0  0  0  0  0  0  0  0  0  0
   14.2894    2.2500    0.0000 C   0  0  0  0  0  0  0  0  0  0  0  0
   15.5885    3.0000    0.0000 C   0  0  0  0  0  0  0  0  0  0  0  0
   15.5885    4.5000    0.0000 C   0  0  0  0  0  0  0  0  0  0  0  0
   16.8875    2.2500    0.0000 C   0  0  0  0  0  0  0  0  0  0  0  0
  1  2  1  0
  2  3  1  0
  3  4  1  0
  4  5  2  3
  5  6  1  0
  6  7  2  3
  7  8  1  0
  8  9  1  0
  9 10  1  0
 10 11  2  0
 10 12  1  0
 12 13  1  0
 13 14  1  0
 13 15  1  0
 15 16  1  0
 16 17  1  0
 16 18  1  0
M  END
>  <Title>  (1214) 
idABSTgen14

$$$$

     RDKit          2D

 34 38  0  0  0  0  0  0  0  0999 V2000
   -3.1476   -2.1380    0.0000 C   0  0  0  0  0  0  0  0  0  0  0  0
   -1.6852   -2.4718    0.0000 C   0  0  0  0  0  0  0  0  0  0  0  0
   -1.3515   -3.9342    0.0000 C   0  0  0  0  0  0  0  0  0  0  0  0
   -0.0000   -4.5850    0.0000 C   0  0  0  0  0  0  0  0  0  0  0  0
    1.3515   -3.9342    0.0000 C   0  0  0  0  0  0  0  0  0  0  0  0
    1.6852   -2.4718    0.0000 C   0  0  0  0  0  0  0  0  0  0  0  0
    3.1476   -2.1380    0.0000 C   0  0  0  0  0  0  0  0  0  0  0  0
    3.5898   -0.7046    0.0000 O   0  0  0  0  0  0  0  0  0  0  0  0
    4.1679   -3.2376    0.0000 N   0  0  0  0  0  0  0  0  0  0  0  0
    5.6303   -2.9038    0.0000 C   0  0  0  0  0  0  0  0  0  0  0  0
    6.2198   -1.5245    0.0000 N   0  0  0  0  0  0  0  0  0  0  0  0
    7.7138   -1.6590    0.0000 N   0  0  0  0  0  0  0  0  0  0  0  0
    8.0476   -3.1214    0.0000 N   0  0  0  0  0  0  0  0  0  0  0  0
    6.7599   -3.8907    0.0000 N   0  0  0  0  0  0  0  0  0  0  0  0
    6.6254   -5.3847    0.0000 N   0  0  0  0  0  0  0  0  0  0  0  0
    5.4740   -6.3460    0.0000 C   0  0  0  0  0  0  0  0  0  0  0  0
    6.4353   -7.4975    0.0000 C   0  0  0  0  0  0  0  0  0  0  0  0
    6.3008   -8.9914    0.0000 C   0  0  0  0  0  0  0  0  0  0  0  0
    7.5274   -9.8548    0.0000 O   0  0  0  0  0  0  0  0  0  0  0  0
    4.9398   -9.6219    0.0000 N   0  0  0  0  0  0  0  0  0  0  0  0
    4.8053  -11.1159    0.0000 C   0  0  0  0  0  0  0  0  0  0  0  0
    3.4443  -11.7464    0.0000 N   0  0  0  0  0  0  0  0  0  0  0  0
    3.3098  -13.2404    0.0000 N   0  0  0  0  0  0  0  0  0  0  0  0
    4.5364  -14.1038    0.0000 N   0  0  0  0  0  0  0  0  0  0  0  0
    5.8974  -13.4733    0.0000 N   0  0  0  0  0  0  0  0  0  0  0  0
    6.0319  -11.9793    0.0000 N   0  0  0  0  0  0  0  0  0  0  0  0
    7.5867   -6.5361    0.0000 C   0  0  0  0  0  0  0  0  0  0  0  0
    9.0807   -6.6706    0.0000 O   0  0  0  0  0  0  0  0  0  0  0  0
    0.7500   -1.2990    0.0000 C   0  0  0  0  0  0  0  0  0  0  0  0
    1.5000    0.0000    0.0000 C   0  0  0  0  0  0  0  0  0  0  0  0
    0.7500    1.2990    0.0000 C   0  0  0  0  0  0  0  0  0  0  0  0
   -0.7500    1.2990    0.0000 C   0  0  0  0  0  0  0  0  0  0  0  0
   -1.5000    0.0000    0.0000 C   0  0  0  0  0  0  0  0  0  0  0  0
   -0.7500   -1.2990    0.0000 C   0  0  0  0  0  0  0  0  0  0  0  0
  1  2  1  0
  2  3  2  0
  3  4  1  0
  4  5  1  0
  5  6  1  0
  6  7  1  0
  7  8  2  0
  7  9  1  0
  9 10  1  0
 10 11  2  0
 11 12  1  0
 12 13  2  0
 13 14  1  0
 14 15  1  0
 15 16  1  0
 16 17  2  0
 17 18  1  0
 18 19  2  0
 18 20  1  0
 20 21  1  0
 21 22  2  0
 22 23  1  0
 23 24  2  0
 24 25  1  0
 25 26  2  0
 17 27  1  0
 27 28  2  0
  6 29  1  0
 29 30  2  0
 30 31  1  0
 31 32  2  0
 32 33  1  0
 33 34  2  0
 34  2  1  0
 14 10  1  0
 27 15  1  0
 34 29  1  0
 26 21  1  0
M  END
>  <Title>  (1215) 
idABSUgen14

$$$$

     RDKit          2D

 29 29  0  0  0  0  0  0  0  0999 V2000
   35.2500   -1.2990    0.0000 C   0  0  0  0  0  0  0  0  0  0  0  0
   33.7500   -1.2990    0.0000 N   0  0  0  0  0  0  0  0  0  0  0  0
   33.0000    0.0000    0.0000 C   0  0  0  0  0  0  0  0  0  0  0  0
   31.5000    0.0000    0.0000 C   0  0  0  0  0  0  0  0  0  0  0  0
   30.0000    0.0000    0.0000 C   0  0  0  0  0  0  0  0  0  0  0  0
   28.5000    0.0000    0.0000 C   0  0  0  0  0  0  0  0  0  0  0  0
   27.0000    0.0000    0.0000 C   0  0  0  0  0  0  0  0  0  0  0  0
   25.5000    0.0000    0.0000 C   0  0  0  0  0  0  0  0  0  0  0  0
   24.0000    0.0000    0.0000 C   0  0  0  0  0  0  0  0  0  0  0  0
   22.5000    0.0000    0.0000 C   0  0  0  0  0  0  0  0  0  0  0  0
   21.0000    0.0000    0.0000 C   0  0  0  0  0  0  0  0  0  0  0  0
   19.5000    0.0000    0.0000 C   0  0  0  0  0  0  0  0  0  0  0  0
   18.0000    0.0000    0.0000 C   0  0  0  0  0  0  0  0  0  0  0  0
   16.5000    0.0000    0.0000 C   0  0  0  0  0  0  0  0  0  0  0  0
   15.0000    0.0000    0.0000 C   0  0  0  0  0  0  0  0  0  0  0  0
   13.5000    0.0000    0.0000 C   0  0  0  0  0  0  0  0  0  0  0  0
   12.0000    0.0000    0.0000 C   0  0  0  0  0  0  0  0  0  0  0  0
   10.5000    0.0000    0.0000 C   0  0  0  0  0  0  0  0  0  0  0  0
    9.0000    0.0000    0.0000 C   0  0  0  0  0  0  0  0  0  0  0  0
    7.5000    0.0000    0.0000 C   0  0  0  0  0  0  0  0  0  0  0  0
    6.0000    0.0000    0.0000 C   0  0  0  0  0  0  0  0  0  0  0  0
    4.5000    0.0000    0.0000 C   0  0  0  0  0  0  0  0  0  0  0  0
    3.0000    0.0000    0.0000 C   0  0  0  0  0  0  0  0  0  0  0  0
    1.5000    0.0000    0.0000 C   0  0  0  0  0  0  0  0  0  0  0  0
    0.7500   -1.2990    0.0000 C   0  0  0  0  0  0  0  0  0  0  0  0
   -0.7500   -1.2990    0.0000 C   0  0  0  0  0  0  0  0  0  0  0  0
   -1.5000    0.0000    0.0000 C   0  0  0  0  0  0  0  0  0  0  0  0
   -0.7500    1.2990    0.0000 C   0  0  0  0  0  0  0  0  0  0  0  0
    0.7500    1.2990    0.0000 N   0  0  0  0  0  0  0  0  0  0  0  0
  1  2  1  0
  2  3  1  0
  3  4  1  0
  4  5  3  0
  5  6  1  0
  6  7  3  0
  7  8  1  0
  8  9  3  0
  9 10  1  0
 10 11  3  0
 11 12  1  0
 12 13  3  0
 13 14  1  0
 14 15  3  0
 15 16  1  0
 16 17  3  0
 17 18  1  0
 18 19  3  0
 19 20  1  0
 20 21  3  0
 21 22  1  0
 22 23  3  0
 23 24  1  0
 24 25  2  0
 25 26  1  0
 26 27  1  0
 27 28  1  0
 28 29  2  0
 29 24  1  0
M  END
>  <Title>  (1216) 
idABSVgen14

$$$$

     RDKit          2D

 11 10  0  0  0  0  0  0  0  0999 V2000
    0.0000    0.0000    0.0000 C   0  0  0  0  0  0  0  0  0  0  0  0
   -0.0000   -1.5000    0.0000 C   0  0  0  0  0  0  0  0  0  0  0  0
   -0.0000   -3.0000    0.0000 C   0  0  0  0  0  0  0  0  0  0  0  0
    1.2990   -3.7500    0.0000 C   0  0  0  0  0  0  0  0  0  0  0  0
    1.2990   -5.2500    0.0000 C   0  0  0  0  0  0  0  0  0  0  0  0
   -0.0000   -6.0000    0.0000 O   0  0  0  0  0  0  0  0  0  0  0  0
    2.5981   -6.0000    0.0000 N   0  0  0  0  0  0  0  0  0  0  0  0
    2.5981   -7.5000    0.0000 C   0  0  0  0  0  0  0  0  0  0  0  0
    3.8971   -8.2500    0.0000 C   0  0  0  0  0  0  0  0  0  0  0  0
    3.8971   -9.7500    0.0000 C   0  0  0  0  0  0  0  0  0  0  0  0
    5.1962  -10.5000    0.0000 C   0  0  0  0  0  0  0  0  0  0  0  0
  1  2  3  0
  2  3  1  0
  3  4  1  0
  4  5  1  0
  5  6  2  0
  5  7  1  0
  7  8  1  0
  8  9  1  0
  9 10  2  3
 10 11  1  0
M  END
>  <Title>  (1217) 
idABSWgen14

$$$$

     RDKit          2D

 48 54  0  0  0  0  0  0  0  0999 V2000
   -6.3400   -8.9930    0.0000 C   0  0  0  0  0  0  0  0  0  0  0  0
   -4.8400   -8.9930    0.0000 C   0  0  0  0  0  0  0  0  0  0  0  0
   -3.9583  -10.2065    0.0000 C   0  0  0  0  0  0  0  0  0  0  0  0
   -2.5317   -9.7430    0.0000 C   0  0  0  0  0  0  0  0  0  0  0  0
   -2.5317   -8.2430    0.0000 C   0  0  0  0  0  0  0  0  0  0  0  0
   -3.9583   -7.7795    0.0000 C   0  0  0  0  0  0  0  0  0  0  0  0
   -4.4218   -6.3529    0.0000 C   0  0  0  0  0  0  0  0  0  0  0  0
   -5.8891   -6.0410    0.0000 O   0  0  0  0  0  0  0  0  0  0  0  0
   -3.4182   -5.2382    0.0000 N   0  0  0  0  0  0  0  0  0  0  0  0
   -3.8817   -3.8116    0.0000 C   0  0  0  0  0  0  0  0  0  0  0  0
   -5.3083   -3.3481    0.0000 N   0  0  0  0  0  0  0  0  0  0  0  0
   -5.3083   -1.8481    0.0000 N   0  0  0  0  0  0  0  0  0  0  0  0
   -3.8817   -1.3846    0.0000 N   0  0  0  0  0  0  0  0  0  0  0  0
   -3.0000   -2.5981    0.0000 N   0  0  0  0  0  0  0  0  0  0  0  0
   -1.5000   -2.5981    0.0000 C   0  0  0  0  0  0  0  0  0  0  0  0
   -0.7500   -3.8971    0.0000 C   0  0  0  0  0  0  0  0  0  0  0  0
    0.7500   -3.8971    0.0000 C   0  0  0  0  0  0  0  0  0  0  0  0
    1.5000   -2.5981    0.0000 C   0  0  0  0  0  0  0  0  0  0  0  0
    3.0000   -2.5981    0.0000 O   0  0  0  0  0  0  0  0  0  0  0  0
    3.7500   -3.8971    0.0000 C   0  0  0  0  0  0  0  0  0  0  0  0
    3.0000   -5.1962    0.0000 O   0  0  0  0  0  0  0  0  0  0  0  0
    5.2500   -3.8971    0.0000 N   0  0  0  0  0  0  0  0  0  0  0  0
    6.0000   -5.1962    0.0000 C   0  0  0  0  0  0  0  0  0  0  0  0
    5.3899   -6.5665    0.0000 N   0  0  0  0  0  0  0  0  0  0  0  0
    6.5046   -7.5702    0.0000 N   0  0  0  0  0  0  0  0  0  0  0  0
    7.8037   -6.8202    0.0000 N   0  0  0  0  0  0  0  0  0  0  0  0
    7.4918   -5.3529    0.0000 N   0  0  0  0  0  0  0  0  0  0  0  0
    8.4955   -4.2382    0.0000 N   0  0  0  0  0  0  0  0  0  0  0  0
    8.1836   -2.7710    0.0000 C   0  0  0  0  0  0  0  0  0  0  0  0
    9.4826   -2.0210    0.0000 C   0  0  0  0  0  0  0  0  0  0  0  0
   10.5974   -3.0247    0.0000 N   0  0  0  0  0  0  0  0  0  0  0  0
   12.0646   -2.7128    0.0000 C   0  0  0  0  0  0  0  0  0  0  0  0
   13.0683   -3.8276    0.0000 O   0  0  0  0  0  0  0  0  0  0  0  0
   12.5281   -1.2863    0.0000 N   0  0  0  0  0  0  0  0  0  0  0  0
   11.5244   -0.1715    0.0000 C   0  0  0  0  0  0  0  0  0  0  0  0
   10.0572   -0.4834    0.0000 N   0  0  0  0  0  0  0  0  0  0  0  0
    9.0535    0.6313    0.0000 N   0  0  0  0  0  0  0  0  0  0  0  0
    9.5170    2.0579    0.0000 N   0  0  0  0  0  0  0  0  0  0  0  0
   10.9842    2.3698    0.0000 N   0  0  0  0  0  0  0  0  0  0  0  0
   11.9879    1.2551    0.0000 N   0  0  0  0  0  0  0  0  0  0  0  0
    9.9873   -4.3950    0.0000 C   0  0  0  0  0  0  0  0  0  0  0  0
   10.7373   -5.6941    0.0000 O   0  0  0  0  0  0  0  0  0  0  0  0
    0.7500   -1.2990    0.0000 C   0  0  0  0  0  0  0  0  0  0  0  0
    1.5000    0.0000    0.0000 C   0  0  0  0  0  0  0  0  0  0  0  0
    0.7500    1.2990    0.0000 C   0  0  0  0  0  0  0  0  0  0  0  0
   -0.7500    1.2990    0.0000 C   0  0  0  0  0  0  0  0  0  0  0  0
   -1.5000    0.0000    0.0000 C   0  0  0  0  0  0  0  0  0  0  0  0
   -0.7500   -1.2990    0.0000 C   0  0  0  0  0  0  0  0  0  0  0  0
  1  2  1  0
  2  3  1  0
  3  4  2  0
  4  5  1  0
  5  6  1  0
  6  7  1  0
  7  8  2  0
  7  9  1  0
  9 10  1  0
 10 11  2  0
 11 12  1  0
 12 13  2  0
 13 14  1  0
 14 15  1  0
 15 16  2  0
 16 17  1  0
 17 18  2  0
 18 19  1  0
 19 20  1  0
 20 21  2  0
 20 22  1  0
 22 23  1  0
 23 24  2  0
 24 25  1  0
 25 26  2  0
 26 27  1  0
 27 28  1  0
 28 29  1  0
 29 30  1  0
 30 31  1  0
 31 32  1  0
 32 33  2  0
 32 34  1  0
 34 35  1  0
 35 36  2  0
 36 37  1  0
 37 38  2  0
 38 39  1  0
 39 40  2  0
 31 41  1  0
 41 42  2  0
 18 43  1  0
 43 44  2  0
 44 45  1  0
 45 46  2  0
 46 47  1  0
 47 48  2  0
  6  2  1  0
 14 10  1  0
 48 15  1  0
 27 23  1  0
 41 28  1  0
 48 43  1  0
 40 35  1  0
M  END
>  <Title>  (1218) 
idABSXgen14

$$$$

     RDKit          2D

 35 39  0  0  0  0  0  0  0  0999 V2000
   -3.1476   -2.1380    0.0000 C   0  0  0  0  0  0  0  0  0  0  0  0
   -1.6852   -2.4718    0.0000 C   0  0  0  0  0  0  0  0  0  0  0  0
   -1.3515   -3.9342    0.0000 C   0  0  0  0  0  0  0  0  0  0  0  0
   -0.0000   -4.5850    0.0000 C   0  0  0  0  0  0  0  0  0  0  0  0
    1.3515   -3.9342    0.0000 C   0  0  0  0  0  0  0  0  0  0  0  0
    1.6852   -2.4718    0.0000 C   0  0  0  0  0  0  0  0  0  0  0  0
    3.1476   -2.1380    0.0000 C   0  0  0  0  0  0  0  0  0  0  0  0
    3.5898   -0.7046    0.0000 O   0  0  0  0  0  0  0  0  0  0  0  0
    4.1679   -3.2376    0.0000 N   0  0  0  0  0  0  0  0  0  0  0  0
    5.6303   -2.9038    0.0000 C   0  0  0  0  0  0  0  0  0  0  0  0
    6.2198   -1.5245    0.0000 N   0  0  0  0  0  0  0  0  0  0  0  0
    7.7138   -1.6590    0.0000 N   0  0  0  0  0  0  0  0  0  0  0  0
    8.0476   -3.1214    0.0000 N   0  0  0  0  0  0  0  0  0  0  0  0
    6.7599   -3.8907    0.0000 N   0  0  0  0  0  0  0  0  0  0  0  0
    6.6254   -5.3847    0.0000 N   0  0  0  0  0  0  0  0  0  0  0  0
    7.7550   -6.3716    0.0000 C   0  0  0  0  0  0  0  0  0  0  0  0
    7.1655   -7.7509    0.0000 C   0  0  0  0  0  0  0  0  0  0  0  0
    5.6715   -7.6164    0.0000 N   0  0  0  0  0  0  0  0  0  0  0  0
    4.6846   -8.7460    0.0000 C   0  0  0  0  0  0  0  0  0  0  0  0
    5.1694  -10.1655    0.0000 O   0  0  0  0  0  0  0  0  0  0  0  0
    3.2129   -8.4561    0.0000 N   0  0  0  0  0  0  0  0  0  0  0  0
    2.2260   -9.5857    0.0000 C   0  0  0  0  0  0  0  0  0  0  0  0
    0.7543   -9.2959    0.0000 N   0  0  0  0  0  0  0  0  0  0  0  0
   -0.2326  -10.4255    0.0000 N   0  0  0  0  0  0  0  0  0  0  0  0
    0.2522  -11.8450    0.0000 N   0  0  0  0  0  0  0  0  0  0  0  0
    1.7239  -12.1348    0.0000 N   0  0  0  0  0  0  0  0  0  0  0  0
    2.7108  -11.0052    0.0000 N   0  0  0  0  0  0  0  0  0  0  0  0
    5.3378   -6.1540    0.0000 C   0  0  0  0  0  0  0  0  0  0  0  0
    3.9585   -5.5645    0.0000 O   0  0  0  0  0  0  0  0  0  0  0  0
    0.7500   -1.2990    0.0000 C   0  0  0  0  0  0  0  0  0  0  0  0
    1.5000    0.0000    0.0000 C   0  0  0  0  0  0  0  0  0  0  0  0
    0.7500    1.2990    0.0000 C   0  0  0  0  0  0  0  0  0  0  0  0
   -0.7500    1.2990    0.0000 C   0  0  0  0  0  0  0  0  0  0  0  0
   -1.5000    0.0000    0.0000 C   0  0  0  0  0  0  0  0  0  0  0  0
   -0.7500   -1.2990    0.0000 C   0  0  0  0  0  0  0  0  0  0  0  0
  1  2  1  0
  2  3  1  0
  3  4  1  0
  4  5  1  0
  5  6  1  0
  6  7  1  0
  7  8  2  0
  7  9  1  0
  9 10  1  0
 10 11  2  0
 11 12  1  0
 12 13  2  0
 13 14  1  0
 14 15  1  0
 15 16  1  0
 16 17  1  0
 17 18  1  0
 18 19  1  0
 19 20  2  0
 19 21  1  0
 21 22  1  0
 22 23  2  0
 23 24  1  0
 24 25  2  0
 25 26  1  0
 26 27  2  0
 18 28  1  0
 28 29  2  0
  6 30  1  0
 30 31  2  0
 31 32  1  0
 32 33  2  0
 33 34  1  0
 34 35  2  0
 35  2  1  0
 14 10  1  0
 28 15  1  0
 35 30  1  0
 27 22  1  0
M  END
>  <Title>  (1219) 
idABSYgen14

$$$$

     RDKit          2D

  6  5  0  0  0  0  0  0  0  0999 V2000
    0.0000    0.0000    0.0000 C   0  0  0  0  0  0  0  0  0  0  0  0
    1.2990    0.7500    0.0000 C   0  0  0  0  0  0  0  0  0  0  0  0
    2.5981   -0.0000    0.0000 C   0  0  0  0  0  0  0  0  0  0  0  0
    3.8971    0.7500    0.0000 C   0  0  0  0  0  0  0  0  0  0  0  0
    5.1962   -0.0000    0.0000 C   0  0  0  0  0  0  0  0  0  0  0  0
    3.8971    2.2500    0.0000 C   0  0  0  0  0  0  0  0  0  0  0  0
  1  2  1  0
  2  3  2  3
  3  4  1  0
  4  5  1  0
  4  6  1  0
M  END
>  <Title>  (1220) 
idABSZgen14

$$$$

     RDKit          2D

 35 39  0  0  0  0  0  0  0  0999 V2000
   -3.2638   -6.1236    0.0000 C   0  0  0  0  0  0  0  0  0  0  0  0
   -2.9520   -4.6564    0.0000 C   0  0  0  0  0  0  0  0  0  0  0  0
   -2.6401   -3.1891    0.0000 C   0  0  0  0  0  0  0  0  0  0  0  0
   -1.2135   -2.7256    0.0000 C   0  0  0  0  0  0  0  0  0  0  0  0
   -0.0000   -3.6073    0.0000 C   0  0  0  0  0  0  0  0  0  0  0  0
    1.2135   -2.7256    0.0000 C   0  0  0  0  0  0  0  0  0  0  0  0
    2.6401   -3.1891    0.0000 C   0  0  0  0  0  0  0  0  0  0  0  0
    3.7548   -2.1855    0.0000 O   0  0  0  0  0  0  0  0  0  0  0  0
    2.9520   -4.6564    0.0000 N   0  0  0  0  0  0  0  0  0  0  0  0
    4.3786   -5.1199    0.0000 C   0  0  0  0  0  0  0  0  0  0  0  0
    5.5921   -4.2382    0.0000 N   0  0  0  0  0  0  0  0  0  0  0  0
    6.8056   -5.1199    0.0000 N   0  0  0  0  0  0  0  0  0  0  0  0
    6.3421   -6.5465    0.0000 N   0  0  0  0  0  0  0  0  0  0  0  0
    4.8421   -6.5465    0.0000 N   0  0  0  0  0  0  0  0  0  0  0  0
    3.9604   -7.7600    0.0000 N   0  0  0  0  0  0  0  0  0  0  0  0
    4.4239   -9.1866    0.0000 C   0  0  0  0  0  0  0  0  0  0  0  0
    3.2104  -10.0683    0.0000 C   0  0  0  0  0  0  0  0  0  0  0  0
    1.9969   -9.1866    0.0000 N   0  0  0  0  0  0  0  0  0  0  0  0
    0.5703   -9.6501    0.0000 C   0  0  0  0  0  0  0  0  0  0  0  0
    0.2584  -11.1173    0.0000 O   0  0  0  0  0  0  0  0  0  0  0  0
   -0.5444   -8.6464    0.0000 N   0  0  0  0  0  0  0  0  0  0  0  0
   -1.9710   -9.1099    0.0000 C   0  0  0  0  0  0  0  0  0  0  0  0
   -3.0857   -8.1062    0.0000 N   0  0  0  0  0  0  0  0  0  0  0  0
   -4.5123   -8.5698    0.0000 N   0  0  0  0  0  0  0  0  0  0  0  0
   -4.8242  -10.0370    0.0000 N   0  0  0  0  0  0  0  0  0  0  0  0
   -3.7095  -11.0407    0.0000 N   0  0  0  0  0  0  0  0  0  0  0  0
   -2.2829  -10.5772    0.0000 N   0  0  0  0  0  0  0  0  0  0  0  0
    2.4604   -7.7600    0.0000 C   0  0  0  0  0  0  0  0  0  0  0  0
    1.5787   -6.5465    0.0000 O   0  0  0  0  0  0  0  0  0  0  0  0
    0.7500   -1.2990    0.0000 C   0  0  0  0  0  0  0  0  0  0  0  0
    1.5000    0.0000    0.0000 C   0  0  0  0  0  0  0  0  0  0  0  0
    0.7500    1.2990    0.0000 C   0  0  0  0  0  0  0  0  0  0  0  0
   -0.7500    1.2990    0.0000 C   0  0  0  0  0  0  0  0  0  0  0  0
   -1.5000    0.0000    0.0000 C   0  0  0  0  0  0  0  0  0  0  0  0
   -0.7500   -1.2990    0.0000 C   0  0  0  0  0  0  0  0  0  0  0  0
  1  2  3  0
  2  3  1  0
  3  4  1  0
  4  5  2  0
  5  6  1  0
  6  7  1  0
  7  8  2  0
  7  9  1  0
  9 10  1  0
 10 11  2  0
 11 12  1  0
 12 13  2  0
 13 14  1  0
 14 15  1  0
 15 16  1  0
 16 17  1  0
 17 18  1  0
 18 19  1  0
 19 20  2  0
 19 21  1  0
 21 22  1  0
 22 23  2  0
 23 24  1  0
 24 25  2  0
 25 26  1  0
 26 27  2  0
 18 28  1  0
 28 29  2  0
  6 30  1  0
 30 31  2  0
 31 32  1  0
 32 33  2  0
 33 34  1  0
 34 35  2  0
 35  4  1  0
 14 10  1  0
 28 15  1  0
 35 30  1  0
 27 22  1  0
M  END
>  <Title>  (1221) 
idABTAgen14

$$$$

     RDKit          2D

 13 14  0  0  0  0  0  0  0  0999 V2000
   -2.6491   -1.6339    0.0000 C   0  0  0  0  0  0  0  0  0  0  0  0
   -1.5000   -2.5981    0.0000 C   0  0  0  0  0  0  0  0  0  0  0  0
   -2.6491   -3.5623    0.0000 C   0  0  0  0  0  0  0  0  0  0  0  0
   -0.7500   -3.8971    0.0000 C   0  0  0  0  0  0  0  0  0  0  0  0
   -1.5000   -5.1962    0.0000 O   0  0  0  0  0  0  0  0  0  0  0  0
    0.7500   -3.8971    0.0000 C   0  0  0  0  0  0  0  0  0  0  0  0
    1.5000   -2.5981    0.0000 C   0  0  0  0  0  0  0  0  0  0  0  0
    0.7500   -1.2990    0.0000 C   0  0  0  0  0  0  0  0  0  0  0  0
    1.5000    0.0000    0.0000 N   0  0  0  0  0  0  0  0  0  0  0  0
    0.7500    1.2990    0.0000 C   0  0  0  0  0  0  0  0  0  0  0  0
   -0.7500    1.2990    0.0000 C   0  0  0  0  0  0  0  0  0  0  0  0
   -1.5000    0.0000    0.0000 C   0  0  0  0  0  0  0  0  0  0  0  0
   -0.7500   -1.2990    0.0000 C   0  0  0  0  0  0  0  0  0  0  0  0
  1  2  1  0
  2  3  1  0
  2  4  1  0
  4  5  2  0
  4  6  1  0
  6  7  1  0
  7  8  1  0
  8  9  2  0
  9 10  1  0
 10 11  2  0
 11 12  1  0
 12 13  2  0
 13  2  1  0
 13  8  1  0
M  END
>  <Title>  (1222) 
idABTBgen14

$$$$

     RDKit          2D

 43 48  0  0  0  0  0  0  0  0999 V2000
   -3.7860   -5.5823    0.0000 C   0  0  0  0  0  0  0  0  0  0  0  0
   -2.4215   -4.9592    0.0000 C   0  0  0  0  0  0  0  0  0  0  0  0
   -1.4392   -6.0928    0.0000 C   0  0  0  0  0  0  0  0  0  0  0  0
   -0.0000   -6.5154    0.0000 C   0  0  0  0  0  0  0  0  0  0  0  0
    1.4392   -6.0928    0.0000 C   0  0  0  0  0  0  0  0  0  0  0  0
    2.4215   -4.9592    0.0000 C   0  0  0  0  0  0  0  0  0  0  0  0
    2.6350   -3.4744    0.0000 C   0  0  0  0  0  0  0  0  0  0  0  0
    2.0119   -2.1100    0.0000 C   0  0  0  0  0  0  0  0  0  0  0  0
    3.1455   -1.1277    0.0000 C   0  0  0  0  0  0  0  0  0  0  0  0
    2.8616    0.3452    0.0000 O   0  0  0  0  0  0  0  0  0  0  0  0
    4.5630   -1.6183    0.0000 N   0  0  0  0  0  0  0  0  0  0  0  0
    5.6966   -0.6360    0.0000 C   0  0  0  0  0  0  0  0  0  0  0  0
    5.5683    0.8585    0.0000 N   0  0  0  0  0  0  0  0  0  0  0  0
    6.9500    1.4424    0.0000 N   0  0  0  0  0  0  0  0  0  0  0  0
    7.9322    0.3088    0.0000 N   0  0  0  0  0  0  0  0  0  0  0  0
    7.1576   -0.9758    0.0000 N   0  0  0  0  0  0  0  0  0  0  0  0
    7.7416   -2.3574    0.0000 N   0  0  0  0  0  0  0  0  0  0  0  0
    9.2026   -2.6972    0.0000 C   0  0  0  0  0  0  0  0  0  0  0  0
    9.3309   -4.1917    0.0000 C   0  0  0  0  0  0  0  0  0  0  0  0
    7.9492   -4.7756    0.0000 N   0  0  0  0  0  0  0  0  0  0  0  0
    7.6095   -6.2366    0.0000 C   0  0  0  0  0  0  0  0  0  0  0  0
    8.7049   -7.2614    0.0000 O   0  0  0  0  0  0  0  0  0  0  0  0
    6.1744   -6.6729    0.0000 N   0  0  0  0  0  0  0  0  0  0  0  0
    5.8346   -8.1339    0.0000 C   0  0  0  0  0  0  0  0  0  0  0  0
    4.3995   -8.5702    0.0000 N   0  0  0  0  0  0  0  0  0  0  0  0
    4.0597  -10.0312    0.0000 N   0  0  0  0  0  0  0  0  0  0  0  0
    5.1551  -11.0560    0.0000 N   0  0  0  0  0  0  0  0  0  0  0  0
    6.5903  -10.6197    0.0000 N   0  0  0  0  0  0  0  0  0  0  0  0
    6.9300   -9.1587    0.0000 N   0  0  0  0  0  0  0  0  0  0  0  0
    6.9670   -3.6420    0.0000 C   0  0  0  0  0  0  0  0  0  0  0  0
    5.4725   -3.7703    0.0000 O   0  0  0  0  0  0  0  0  0  0  0  0
    0.7500   -1.2990    0.0000 C   0  0  0  0  0  0  0  0  0  0  0  0
    1.5000    0.0000    0.0000 C   0  0  0  0  0  0  0  0  0  0  0  0
    0.7500    1.2990    0.0000 C   0  0  0  0  0  0  0  0  0  0  0  0
   -0.7500    1.2990    0.0000 C   0  0  0  0  0  0  0  0  0  0  0  0
   -1.5000    0.0000    0.0000 C   0  0  0  0  0  0  0  0  0  0  0  0
   -0.7500   -1.2990    0.0000 C   0  0  0  0  0  0  0  0  0  0  0  0
   -2.0119   -2.1100    0.0000 C   0  0  0  0  0  0  0  0  0  0  0  0
   -2.8820   -0.8881    0.0000 C   0  0  0  0  0  0  0  0  0  0  0  0
   -4.3752   -1.0307    0.0000 C   0  0  0  0  0  0  0  0  0  0  0  0
   -4.9983   -2.3952    0.0000 C   0  0  0  0  0  0  0  0  0  0  0  0
   -4.1282   -3.6170    0.0000 C   0  0  0  0  0  0  0  0  0  0  0  0
   -2.6350   -3.4744    0.0000 C   0  0  0  0  0  0  0  0  0  0  0  0
  1  2  1  0
  2  3  1  0
  3  4  2  0
  4  5  1  0
  5  6  1  0
  6  7  1  0
  7  8  1  0
  8  9  1  0
  9 10  2  0
  9 11  1  0
 11 12  1  0
 12 13  2  0
 13 14  1  0
 14 15  2  0
 15 16  1  0
 16 17  1  0
 17 18  1  0
 18 19  1  0
 19 20  1  0
 20 21  1  0
 21 22  2  0
 21 23  1  0
 23 24  1  0
 24 25  2  0
 25 26  1  0
 26 27  2  0
 27 28  1  0
 28 29  2  0
 20 30  1  0
 30 31  2  0
  8 32  1  0
 32 33  2  0
 33 34  1  0
 34 35  2  0
 35 36  1  0
 36 37  2  0
 37 38  1  0
 38 39  2  0
 39 40  1  0
 40 41  2  0
 41 42  1  0
 42 43  2  0
 43  2  1  0
 16 12  1  0
 30 17  1  0
 37 32  1  0
 43 38  1  0
 29 24  1  0
M  END
>  <Title>  (1223) 
idABTCgen14

$$$$

     RDKit          2D

  6  6  0  0  0  0  0  0  0  0999 V2000
    1.5000    0.0000    0.0000 C   0  0  0  0  0  0  0  0  0  0  0  0
    0.7500   -1.2990    0.0000 C   0  0  0  0  0  0  0  0  0  0  0  0
   -0.7500   -1.2990    0.0000 S   0  0  0  0  0  0  0  0  0  0  0  0
   -1.5000    0.0000    0.0000 C   0  0  0  0  0  0  0  0  0  0  0  0
   -0.7500    1.2990    0.0000 C   0  0  0  0  0  0  0  0  0  0  0  0
    0.7500    1.2990    0.0000 C   0  0  0  0  0  0  0  0  0  0  0  0
  1  2  2  0
  2  3  1  0
  3  4  1  0
  4  5  1  0
  5  6  1  0
  6  1  1  0
M  END
>  <Title>  (1224) 
idABTDgen14

$$$$

     RDKit          2D

 12 11  0  0  0  0  0  0  0  0999 V2000
    0.0000    0.0000    0.0000 C   0  0  0  0  0  0  0  0  0  0  0  0
    1.2990    0.7500    0.0000 C   0  0  0  0  0  0  0  0  0  0  0  0
    2.5981   -0.0000    0.0000 C   0  0  0  0  0  0  0  0  0  0  0  0
    3.8971    0.7500    0.0000 C   0  0  0  0  0  0  0  0  0  0  0  0
    5.1962   -0.0000    0.0000 C   0  0  0  0  0  0  0  0  0  0  0  0
    6.4952    0.7500    0.0000 C   0  0  0  0  0  0  0  0  0  0  0  0
    5.1962   -1.5000    0.0000 N   0  0  0  0  0  0  0  0  0  0  0  0
    6.4952   -2.2500    0.0000 C   0  0  0  0  0  0  0  0  0  0  0  0
    7.7942   -1.5000    0.0000 O   0  0  0  0  0  0  0  0  0  0  0  0
    6.4952   -3.7500    0.0000 C   0  0  0  0  0  0  0  0  0  0  0  0
    7.7942   -4.5000    0.0000 C   0  0  0  0  0  0  0  0  0  0  0  0
    7.7942   -6.0000    0.0000 C   0  0  0  0  0  0  0  0  0  0  0  0
  1  2  1  0
  2  3  2  3
  3  4  1  0
  4  5  1  0
  5  6  1  0
  5  7  1  0
  7  8  1  0
  8  9  2  0
  8 10  1  0
 10 11  1  0
 11 12  1  0
M  END
>  <Title>  (1225) 
idABTEgen14

$$$$

     RDKit          2D

 10 10  0  0  0  0  0  0  0  0999 V2000
    5.2500   -1.2990    0.0000 C   0  0  0  0  0  0  0  0  0  0  0  0
    3.7500   -1.2990    0.0000 C   0  0  0  0  0  0  0  0  0  0  0  0
    3.0000   -2.5981    0.0000 O   0  0  0  0  0  0  0  0  0  0  0  0
    3.0000    0.0000    0.0000 N   0  0  0  0  0  0  0  0  0  0  0  0
    1.5000    0.0000    0.0000 C   0  0  0  0  0  0  0  0  0  0  0  0
    0.7500   -1.2990    0.0000 C   0  0  0  0  0  0  0  0  0  0  0  0
   -0.7500   -1.2990    0.0000 C   0  0  0  0  0  0  0  0  0  0  0  0
   -1.5000    0.0000    0.0000 C   0  0  0  0  0  0  0  0  0  0  0  0
   -0.7500    1.2990    0.0000 C   0  0  0  0  0  0  0  0  0  0  0  0
    0.7500    1.2990    0.0000 C   0  0  0  0  0  0  0  0  0  0  0  0
  1  2  1  0
  2  3  2  0
  2  4  1  0
  4  5  1  0
  5  6  2  0
  6  7  1  0
  7  8  1  0
  8  9  1  0
  9 10  1  0
 10  5  1  0
M  END
>  <Title>  (1226) 
idABTFgen14

$$$$

     RDKit          2D

  8  7  0  0  0  0  0  0  0  0999 V2000
    0.0000    0.0000    0.0000 C   0  0  0  0  0  0  0  0  0  0  0  0
    1.2990    0.7500    0.0000 C   0  0  0  0  0  0  0  0  0  0  0  0
    2.5981   -0.0000    0.0000 C   0  0  0  0  0  0  0  0  0  0  0  0
    3.8971    0.7500    0.0000 N   0  0  0  0  0  0  0  0  0  0  0  0
    5.1962   -0.0000    0.0000 C   0  0  0  0  0  0  0  0  0  0  0  0
    5.1962   -1.5000    0.0000 O   0  0  0  0  0  0  0  0  0  0  0  0
    6.4952    0.7500    0.0000 C   0  0  0  0  0  0  0  0  0  0  0  0
    7.7942   -0.0000    0.0000 C   0  0  0  0  0  0  0  0  0  0  0  0
  1  2  1  0
  2  3  1  0
  3  4  1  0
  4  5  1  0
  5  6  2  0
  5  7  1  0
  7  8  1  0
M  END
>  <Title>  (1227) 
idABTGgen14

$$$$

     RDKit          2D

104105  0  0  0  0  0  0  0  0999 V2000
   15.2181   -4.5756    0.0000 C   0  0  0  0  0  0  0  0  0  0  0  0
   16.0099   -4.4833    0.0000 C   0  0  0  0  0  0  0  0  0  0  0  0
   16.3094   -5.9531    0.0000 C   0  0  0  0  0  0  0  0  0  0  0  0
   16.8530   -7.3511    0.0000 C   0  0  0  0  0  0  0  0  0  0  0  0
   17.6251   -8.6372    0.0000 C   0  0  0  0  0  0  0  0  0  0  0  0
   18.6034   -9.7742    0.0000 C   0  0  0  0  0  0  0  0  0  0  0  0
   19.7598  -10.7296    0.0000 C   0  0  0  0  0  0  0  0  0  0  0  0
   21.0610  -11.4758    0.0000 C   0  0  0  0  0  0  0  0  0  0  0  0
   22.4696  -11.9914    0.0000 C   0  0  0  0  0  0  0  0  0  0  0  0
   23.9451  -12.2615    0.0000 C   0  0  0  0  0  0  0  0  0  0  0  0
   25.4450  -12.2784    0.0000 C   0  0  0  0  0  0  0  0  0  0  0  0
   26.9262  -12.0415    0.0000 C   0  0  0  0  0  0  0  0  0  0  0  0
   28.3460  -11.5577    0.0000 C   0  0  0  0  0  0  0  0  0  0  0  0
   29.6637  -10.8409    0.0000 C   0  0  0  0  0  0  0  0  0  0  0  0
   30.8412   -9.9118    0.0000 C   0  0  0  0  0  0  0  0  0  0  0  0
   31.8448   -8.7970    0.0000 C   0  0  0  0  0  0  0  0  0  0  0  0
   32.6456   -7.5286    0.0000 C   0  0  0  0  0  0  0  0  0  0  0  0
   33.2205   -6.1431    0.0000 C   0  0  0  0  0  0  0  0  0  0  0  0
   33.5530   -4.6804    0.0000 C   0  0  0  0  0  0  0  0  0  0  0  0
   33.6335   -3.1826    0.0000 C   0  0  0  0  0  0  0  0  0  0  0  0
   33.4597   -1.6927    0.0000 C   0  0  0  0  0  0  0  0  0  0  0  0
   33.0366   -0.2536    0.0000 C   0  0  0  0  0  0  0  0  0  0  0  0
   32.3764    1.0933    0.0000 C   0  0  0  0  0  0  0  0  0  0  0  0
   31.4980    2.3092    0.0000 C   0  0  0  0  0  0  0  0  0  0  0  0
   30.4268    3.3592    0.0000 C   0  0  0  0  0  0  0  0  0  0  0  0
   29.1936    4.2131    0.0000 C   0  0  0  0  0  0  0  0  0  0  0  0
   27.8338    4.8463    0.0000 C   0  0  0  0  0  0  0  0  0  0  0  0
   26.3865    5.2405    0.0000 C   0  0  0  0  0  0  0  0  0  0  0  0
   24.8934    5.3845    0.0000 C   0  0  0  0  0  0  0  0  0  0  0  0
   23.3975    5.2741    0.0000 C   0  0  0  0  0  0  0  0  0  0  0  0
   21.9417    4.9125    0.0000 C   0  0  0  0  0  0  0  0  0  0  0  0
   20.5680    4.3101    0.0000 C   0  0  0  0  0  0  0  0  0  0  0  0
   19.3159    3.4841    0.0000 C   0  0  0  0  0  0  0  0  0  0  0  0
   18.2214    2.4584    0.0000 C   0  0  0  0  0  0  0  0  0  0  0  0
   17.3159    1.2625    0.0000 C   0  0  0  0  0  0  0  0  0  0  0  0
   16.6256   -0.0692    0.0000 C   0  0  0  0  0  0  0  0  0  0  0  0
   16.1703   -1.4984    0.0000 C   0  0  0  0  0  0  0  0  0  0  0  0
   15.5396    0.0000    0.0000 C   0  0  0  0  0  0  0  0  0  0  0  0
   15.4733    1.4338    0.0000 C   0  0  0  0  0  0  0  0  0  0  0  0
   15.2750    2.8554    0.0000 C   0  0  0  0  0  0  0  0  0  0  0  0
   14.9464    4.2526    0.0000 C   0  0  0  0  0  0  0  0  0  0  0  0
   14.4902    5.6135    0.0000 C   0  0  0  0  0  0  0  0  0  0  0  0
   13.9105    6.9266    0.0000 C   0  0  0  0  0  0  0  0  0  0  0  0
   13.2120    8.1805    0.0000 C   0  0  0  0  0  0  0  0  0  0  0  0
   12.4009    9.3647    0.0000 C   0  0  0  0  0  0  0  0  0  0  0  0
   11.4839   10.4689    0.0000 C   0  0  0  0  0  0  0  0  0  0  0  0
   10.4689   11.4839    0.0000 C   0  0  0  0  0  0  0  0  0  0  0  0
    9.3647   12.4009    0.0000 C   0  0  0  0  0  0  0  0  0  0  0  0
    8.1805   13.2120    0.0000 C   0  0  0  0  0  0  0  0  0  0  0  0
    6.9266   13.9105    0.0000 C   0  0  0  0  0  0  0  0  0  0  0  0
    5.6135   14.4902    0.0000 C   0  0  0  0  0  0  0  0  0  0  0  0
    4.2526   14.9464    0.0000 C   0  0  0  0  0  0  0  0  0  0  0  0
    2.8554   15.2750    0.0000 C   0  0  0  0  0  0  0  0  0  0  0  0
    1.4338   15.4733    0.0000 C   0  0  0  0  0  0  0  0  0  0  0  0
    0.0000   15.5396    0.0000 C   0  0  0  0  0  0  0  0  0  0  0  0
   -1.4338   15.4733    0.0000 C   0  0  0  0  0  0  0  0  0  0  0  0
   -2.8554   15.2750    0.0000 C   0  0  0  0  0  0  0  0  0  0  0  0
   -4.2526   14.9464    0.0000 C   0  0  0  0  0  0  0  0  0  0  0  0
   -5.6135   14.4902    0.0000 C   0  0  0  0  0  0  0  0  0  0  0  0
   -6.9266   13.9105    0.0000 C   0  0  0  0  0  0  0  0  0  0  0  0
   -8.1805   13.2120    0.0000 C   0  0  0  0  0  0  0  0  0  0  0  0
   -9.3647   12.4009    0.0000 C   0  0  0  0  0  0  0  0  0  0  0  0
  -10.4689   11.4839    0.0000 C   0  0  0  0  0  0  0  0  0  0  0  0
  -11.4839   10.4689    0.0000 C   0  0  0  0  0  0  0  0  0  0  0  0
  -12.4009    9.3647    0.0000 C   0  0  0  0  0  0  0  0  0  0  0  0
  -13.2120    8.1805    0.0000 C   0  0  0  0  0  0  0  0  0  0  0  0
  -13.9105    6.9266    0.0000 C   0  0  0  0  0  0  0  0  0  0  0  0
  -14.4902    5.6135    0.0000 C   0  0  0  0  0  0  0  0  0  0  0  0
  -14.9464    4.2526    0.0000 C   0  0  0  0  0  0  0  0  0  0  0  0
  -15.2750    2.8554    0.0000 C   0  0  0  0  0  0  0  0  0  0  0  0
  -15.4733    1.4338    0.0000 C   0  0  0  0  0  0  0  0  0  0  0  0
  -15.5396   -0.0000    0.0000 C   0  0  0  0  0  0  0  0  0  0  0  0
  -15.4733   -1.4338    0.0000 C   0  0  0  0  0  0  0  0  0  0  0  0
  -15.2750   -2.8554    0.0000 C   0  0  0  0  0  0  0  0  0  0  0  0
  -14.9464   -4.2526    0.0000 C   0  0  0  0  0  0  0  0  0  0  0  0
  -14.4902   -5.6135    0.0000 C   0  0  0  0  0  0  0  0  0  0  0  0
  -13.9105   -6.9266    0.0000 C   0  0  0  0  0  0  0  0  0  0  0  0
  -13.2120   -8.1805    0.0000 C   0  0  0  0  0  0  0  0  0  0  0  0
  -12.4009   -9.3647    0.0000 C   0  0  0  0  0  0  0  0  0  0  0  0
  -11.4839  -10.4689    0.0000 C   0  0  0  0  0  0  0  0  0  0  0  0
  -10.4689  -11.4839    0.0000 C   0  0  0  0  0  0  0  0  0  0  0  0
   -9.3647  -12.4009    0.0000 C   0  0  0  0  0  0  0  0  0  0  0  0
   -8.1805  -13.2120    0.0000 C   0  0  0  0  0  0  0  0  0  0  0  0
   -6.9266  -13.9105    0.0000 C   0  0  0  0  0  0  0  0  0  0  0  0
   -5.6135  -14.4902    0.0000 C   0  0  0  0  0  0  0  0  0  0  0  0
   -4.2526  -14.9464    0.0000 C   0  0  0  0  0  0  0  0  0  0  0  0
   -2.8554  -15.2750    0.0000 C   0  0  0  0  0  0  0  0  0  0  0  0
   -1.4338  -15.4733    0.0000 C   0  0  0  0  0  0  0  0  0  0  0  0
   -0.0000  -15.5396    0.0000 C   0  0  0  0  0  0  0  0  0  0  0  0
    1.4338  -15.4733    0.0000 C   0  0  0  0  0  0  0  0  0  0  0  0
    2.8554  -15.2750    0.0000 C   0  0  0  0  0  0  0  0  0  0  0  0
    4.2526  -14.9464    0.0000 C   0  0  0  0  0  0  0  0  0  0  0  0
    5.6135  -14.4902    0.0000 C   0  0  0  0  0  0  0  0  0  0  0  0
    6.9266  -13.9105    0.0000 C   0  0  0  0  0  0  0  0  0  0  0  0
    8.1805  -13.2120    0.0000 C   0  0  0  0  0  0  0  0  0  0  0  0
    9.3647  -12.4009    0.0000 C   0  0  0  0  0  0  0  0  0  0  0  0
   10.4689  -11.4839    0.0000 C   0  0  0  0  0  0  0  0  0  0  0  0
   11.4839  -10.4689    0.0000 C   0  0  0  0  0  0  0  0  0  0  0  0
   12.4009   -9.3647    0.0000 C   0  0  0  0  0  0  0  0  0  0  0  0
   13.2120   -8.1805    0.0000 C   0  0  0  0  0  0  0  0  0  0  0  0
   13.9105   -6.9266    0.0000 C   0  0  0  0  0  0  0  0  0  0  0  0
   14.4902   -5.6135    0.0000 C   0  0  0  0  0  0  0  0  0  0  0  0
   14.9464   -4.2526    0.0000 C   0  0  0  0  0  0  0  0  0  0  0  0
   15.9631   -2.9840    0.0000 C   0  0  0  0  0  0  0  0  0  0  0  0
  1  2  1  0
  2  3  1  0
  3  4  1  0
  4  5  1  0
  5  6  1  0
  6  7  1  0
  7  8  1  0
  8  9  1  0
  9 10  1  0
 10 11  1  0
 11 12  1  0
 12 13  1  0
 13 14  1  0
 14 15  1  0
 15 16  1  0
 16 17  1  0
 17 18  1  0
 18 19  1  0
 19 20  1  0
 20 21  1  0
 21 22  1  0
 22 23  1  0
 23 24  1  0
 24 25  1  0
 25 26  1  0
 26 27  1  0
 27 28  1  0
 28 29  1  0
 29 30  1  0
 30 31  1  0
 31 32  1  0
 32 33  1  0
 33 34  1  0
 34 35  1  0
 35 36  1  0
 36 37  1  0
 37 38  1  0
 38 39  1  0
 39 40  1  0
 40 41  1  0
 41 42  1  0
 42 43  1  0
 43 44  1  0
 44 45  1  0
 45 46  1  0
 46 47  1  0
 47 48  1  0
 48 49  1  0
 49 50  1  0
 50 51  1  0
 51 52  1  0
 52 53  1  0
 53 54  1  0
 54 55  1  0
 55 56  1  0
 56 57  1  0
 57 58  1  0
 58 59  1  0
 59 60  1  0
 60 61  1  0
 61 62  1  0
 62 63  1  0
 63 64  1  0
 64 65  1  0
 65 66  1  0
 66 67  1  0
 67 68  1  0
 68 69  1  0
 69 70  1  0
 70 71  1  0
 71 72  1  0
 72 73  1  0
 73 74  1  0
 74 75  1  0
 75 76  1  0
 76 77  1  0
 77 78  1  0
 78 79  1  0
 79 80  1  0
 80 81  1  0
 81 82  1  0
 82 83  1  0
 83 84  1  0
 84 85  1  0
 85 86  1  0
 86 87  1  0
 87 88  1  0
 88 89  1  0
 89 90  1  0
 90 91  1  0
 91 92  1  0
 92 93  1  0
 93 94  1  0
 94 95  1  0
 95 96  1  0
 96 97  1  0
 97 98  1  0
 98 99  1  0
 99100  2  0
100101  1  0
101102  2  0
102103  1  0
103104  2  0
104  2  1  0
104 37  1  0
M  END
>  <Title>  (1228) 
idABTHgen14

$$$$

     RDKit          2D

 44 49  0  0  0  0  0  0  0  0999 V2000
   -0.9849   -8.8820    0.0000 C   0  0  0  0  0  0  0  0  0  0  0  0
   -0.4109   -7.4962    0.0000 C   0  0  0  0  0  0  0  0  0  0  0  0
    1.0763   -7.3004    0.0000 O   0  0  0  0  0  0  0  0  0  0  0  0
   -1.3240   -6.3062    0.0000 N   0  0  0  0  0  0  0  0  0  0  0  0
   -0.7500   -4.9204    0.0000 C   0  0  0  0  0  0  0  0  0  0  0  0
    0.7500   -4.9204    0.0000 C   0  0  0  0  0  0  0  0  0  0  0  0
    1.8107   -3.8597    0.0000 C   0  0  0  0  0  0  0  0  0  0  0  0
    1.8107   -2.3597    0.0000 C   0  0  0  0  0  0  0  0  0  0  0  0
    3.1965   -1.7857    0.0000 O   0  0  0  0  0  0  0  0  0  0  0  0
    4.3865   -2.6988    0.0000 C   0  0  0  0  0  0  0  0  0  0  0  0
    4.1907   -4.1860    0.0000 O   0  0  0  0  0  0  0  0  0  0  0  0
    5.7723   -2.1248    0.0000 N   0  0  0  0  0  0  0  0  0  0  0  0
    6.9624   -3.0379    0.0000 C   0  0  0  0  0  0  0  0  0  0  0  0
    6.9231   -4.5374    0.0000 N   0  0  0  0  0  0  0  0  0  0  0  0
    8.3371   -5.0381    0.0000 N   0  0  0  0  0  0  0  0  0  0  0  0
    9.2502   -3.8481    0.0000 N   0  0  0  0  0  0  0  0  0  0  0  0
    8.4006   -2.6119    0.0000 N   0  0  0  0  0  0  0  0  0  0  0  0
    8.9013   -1.1979    0.0000 N   0  0  0  0  0  0  0  0  0  0  0  0
    8.0517    0.0382    0.0000 O   0  0  0  0  0  0  0  0  0  0  0  0
    8.9648    1.2283    0.0000 C   0  0  0  0  0  0  0  0  0  0  0  0
   10.3788    0.7276    0.0000 C   0  0  0  0  0  0  0  0  0  0  0  0
   11.6150    1.5772    0.0000 C   0  0  0  0  0  0  0  0  0  0  0  0
   12.9689    0.9314    0.0000 O   0  0  0  0  0  0  0  0  0  0  0  0
   11.4973    3.0725    0.0000 N   0  0  0  0  0  0  0  0  0  0  0  0
   12.7335    3.9222    0.0000 C   0  0  0  0  0  0  0  0  0  0  0  0
   14.0874    3.2764    0.0000 N   0  0  0  0  0  0  0  0  0  0  0  0
   15.3236    4.1260    0.0000 N   0  0  0  0  0  0  0  0  0  0  0  0
   15.2059    5.6214    0.0000 N   0  0  0  0  0  0  0  0  0  0  0  0
   13.8520    6.2671    0.0000 N   0  0  0  0  0  0  0  0  0  0  0  0
   12.6158    5.4175    0.0000 N   0  0  0  0  0  0  0  0  0  0  0  0
   10.3395   -0.7719    0.0000 C   0  0  0  0  0  0  0  0  0  0  0  0
   11.5296   -1.6851    0.0000 O   0  0  0  0  0  0  0  0  0  0  0  0
    0.7500   -1.2990    0.0000 C   0  0  0  0  0  0  0  0  0  0  0  0
    1.5000    0.0000    0.0000 C   0  0  0  0  0  0  0  0  0  0  0  0
    0.7500    1.2990    0.0000 C   0  0  0  0  0  0  0  0  0  0  0  0
   -0.7500    1.2990    0.0000 C   0  0  0  0  0  0  0  0  0  0  0  0
   -1.5000    0.0000    0.0000 C   0  0  0  0  0  0  0  0  0  0  0  0
   -0.7500   -1.2990    0.0000 C   0  0  0  0  0  0  0  0  0  0  0  0
   -1.8107   -2.3597    0.0000 C   0  0  0  0  0  0  0  0  0  0  0  0
   -3.1097   -1.6097    0.0000 C   0  0  0  0  0  0  0  0  0  0  0  0
   -4.4087   -2.3597    0.0000 C   0  0  0  0  0  0  0  0  0  0  0  0
   -4.4087   -3.8597    0.0000 C   0  0  0  0  0  0  0  0  0  0  0  0
   -3.1097   -4.6097    0.0000 C   0  0  0  0  0  0  0  0  0  0  0  0
   -1.8107   -3.8597    0.0000 C   0  0  0  0  0  0  0  0  0  0  0  0
  1  2  1  0
  2  3  2  0
  2  4  1  0
  4  5  1  0
  5  6  2  0
  6  7  1  0
  7  8  2  0
  8  9  1  0
  9 10  1  0
 10 11  2  0
 10 12  1  0
 12 13  1  0
 13 14  2  0
 14 15  1  0
 15 16  2  0
 16 17  1  0
 17 18  1  0
 18 19  1  0
 19 20  1  0
 20 21  1  0
 21 22  1  0
 22 23  2  0
 22 24  1  0
 24 25  1  0
 25 26  2  0
 26 27  1  0
 27 28  2  0
 28 29  1  0
 29 30  2  0
 21 31  1  0
 31 32  2  0
  8 33  1  0
 33 34  2  0
 34 35  1  0
 35 36  2  0
 36 37  1  0
 37 38  2  0
 38 39  1  0
 39 40  2  0
 40 41  1  0
 41 42  2  0
 42 43  1  0
 43 44  2  0
 44  5  1  0
 17 13  1  0
 31 18  1  0
 38 33  1  0
 44 39  1  0
 30 25  1  0
M  END
>  <Title>  (1229) 
idABTIgen14

$$$$

     RDKit          2D

 12 12  0  0  0  0  0  0  0  0999 V2000
    6.0000   -2.5981    0.0000 C   0  0  0  0  0  0  0  0  0  0  0  0
    5.2500   -1.2990    0.0000 C   0  0  0  0  0  0  0  0  0  0  0  0
    3.7500   -1.2990    0.0000 C   0  0  0  0  0  0  0  0  0  0  0  0
    3.0000    0.0000    0.0000 C   0  0  0  0  0  0  0  0  0  0  0  0
    1.5000    0.0000    0.0000 C   0  0  0  0  0  0  0  0  0  0  0  0
    0.7500   -1.2990    0.0000 C   0  0  0  0  0  0  0  0  0  0  0  0
   -0.7500   -1.2990    0.0000 C   0  0  0  0  0  0  0  0  0  0  0  0
   -1.5000    0.0000    0.0000 C   0  0  0  0  0  0  0  0  0  0  0  0
   -3.0000    0.0000    0.0000 C   0  0  0  0  0  0  0  0  0  0  0  0
   -4.5000    0.0000    0.0000 N   0  0  0  0  0  0  0  0  0  0  0  0
   -0.7500    1.2990    0.0000 C   0  0  0  0  0  0  0  0  0  0  0  0
    0.7500    1.2990    0.0000 C   0  0  0  0  0  0  0  0  0  0  0  0
  1  2  1  0
  2  3  1  0
  3  4  1  0
  4  5  1  0
  5  6  2  0
  6  7  1  0
  7  8  2  0
  8  9  1  0
  9 10  3  0
  8 11  1  0
 11 12  2  0
 12  5  1  0
M  END
>  <Title>  (1230) 
idABTJgen14

$$$$

     RDKit          2D

 81 82  0  0  0  0  0  0  0  0999 V2000
    6.0245   -4.3225    0.0000 C   0  0  0  0  0  0  0  0  0  0  0  0
    6.8172   -4.4069    0.0000 C   0  0  0  0  0  0  0  0  0  0  0  0
    6.7524   -5.9055    0.0000 C   0  0  0  0  0  0  0  0  0  0  0  0
    6.8760   -7.4004    0.0000 C   0  0  0  0  0  0  0  0  0  0  0  0
    7.1859   -8.8680    0.0000 C   0  0  0  0  0  0  0  0  0  0  0  0
    7.6774  -10.2852    0.0000 C   0  0  0  0  0  0  0  0  0  0  0  0
    8.3426  -11.6296    0.0000 C   0  0  0  0  0  0  0  0  0  0  0  0
    9.1710  -12.8801    0.0000 C   0  0  0  0  0  0  0  0  0  0  0  0
   10.1496  -14.0169    0.0000 C   0  0  0  0  0  0  0  0  0  0  0  0
   11.2630  -15.0220    0.0000 C   0  0  0  0  0  0  0  0  0  0  0  0
   12.4937  -15.8797    0.0000 C   0  0  0  0  0  0  0  0  0  0  0  0
   13.8220  -16.5764    0.0000 C   0  0  0  0  0  0  0  0  0  0  0  0
   15.2273  -17.1011    0.0000 C   0  0  0  0  0  0  0  0  0  0  0  0
   16.6872  -17.4455    0.0000 C   0  0  0  0  0  0  0  0  0  0  0  0
   18.1788  -17.6043    0.0000 C   0  0  0  0  0  0  0  0  0  0  0  0
   19.6785  -17.5748    0.0000 C   0  0  0  0  0  0  0  0  0  0  0  0
   21.1627  -17.3576    0.0000 C   0  0  0  0  0  0  0  0  0  0  0  0
   22.6080  -16.9562    0.0000 C   0  0  0  0  0  0  0  0  0  0  0  0
   23.9915  -16.3767    0.0000 C   0  0  0  0  0  0  0  0  0  0  0  0
   25.2915  -15.6284    0.0000 C   0  0  0  0  0  0  0  0  0  0  0  0
   26.4875  -14.7231    0.0000 C   0  0  0  0  0  0  0  0  0  0  0  0
   27.5606  -13.6750    0.0000 C   0  0  0  0  0  0  0  0  0  0  0  0
   28.4938  -12.5006    0.0000 C   0  0  0  0  0  0  0  0  0  0  0  0
   29.2726  -11.2186    0.0000 C   0  0  0  0  0  0  0  0  0  0  0  0
   29.8845   -9.8491    0.0000 C   0  0  0  0  0  0  0  0  0  0  0  0
   30.3199   -8.4137    0.0000 C   0  0  0  0  0  0  0  0  0  0  0  0
   30.5720   -6.9350    0.0000 C   0  0  0  0  0  0  0  0  0  0  0  0
   30.6368   -5.4364    0.0000 C   0  0  0  0  0  0  0  0  0  0  0  0
   30.5132   -3.9415    0.0000 C   0  0  0  0  0  0  0  0  0  0  0  0
   30.2033   -2.4739    0.0000 C   0  0  0  0  0  0  0  0  0  0  0  0
   29.7118   -1.0567    0.0000 C   0  0  0  0  0  0  0  0  0  0  0  0
   29.0466    0.2878    0.0000 C   0  0  0  0  0  0  0  0  0  0  0  0
   28.2182    1.5382    0.0000 C   0  0  0  0  0  0  0  0  0  0  0  0
   27.2395    2.6750    0.0000 C   0  0  0  0  0  0  0  0  0  0  0  0
   26.1261    3.6802    0.0000 C   0  0  0  0  0  0  0  0  0  0  0  0
   24.8955    4.5378    0.0000 C   0  0  0  0  0  0  0  0  0  0  0  0
   23.5671    5.2345    0.0000 C   0  0  0  0  0  0  0  0  0  0  0  0
   22.1619    5.7592    0.0000 C   0  0  0  0  0  0  0  0  0  0  0  0
   20.7020    6.1037    0.0000 C   0  0  0  0  0  0  0  0  0  0  0  0
   19.2104    6.2624    0.0000 C   0  0  0  0  0  0  0  0  0  0  0  0
   17.7107    6.2329    0.0000 C   0  0  0  0  0  0  0  0  0  0  0  0
   16.2265    6.0158    0.0000 C   0  0  0  0  0  0  0  0  0  0  0  0
   14.7812    5.6143    0.0000 C   0  0  0  0  0  0  0  0  0  0  0  0
   13.3977    5.0348    0.0000 C   0  0  0  0  0  0  0  0  0  0  0  0
   12.0976    4.2865    0.0000 C   0  0  0  0  0  0  0  0  0  0  0  0
   10.9017    3.3812    0.0000 C   0  0  0  0  0  0  0  0  0  0  0  0
    9.8286    2.3331    0.0000 C   0  0  0  0  0  0  0  0  0  0  0  0
    8.8953    1.1588    0.0000 C   0  0  0  0  0  0  0  0  0  0  0  0
    8.1166   -0.1233    0.0000 C   0  0  0  0  0  0  0  0  0  0  0  0
    7.5047   -1.4928    0.0000 C   0  0  0  0  0  0  0  0  0  0  0  0
    6.9517   -0.0000    0.0000 C   0  0  0  0  0  0  0  0  0  0  0  0
    6.8181    1.3562    0.0000 C   0  0  0  0  0  0  0  0  0  0  0  0
    6.4226    2.6603    0.0000 C   0  0  0  0  0  0  0  0  0  0  0  0
    5.7801    3.8622    0.0000 C   0  0  0  0  0  0  0  0  0  0  0  0
    4.9156    4.9156    0.0000 C   0  0  0  0  0  0  0  0  0  0  0  0
    3.8622    5.7801    0.0000 C   0  0  0  0  0  0  0  0  0  0  0  0
    2.6603    6.4226    0.0000 C   0  0  0  0  0  0  0  0  0  0  0  0
    1.3562    6.8181    0.0000 C   0  0  0  0  0  0  0  0  0  0  0  0
    0.0000    6.9517    0.0000 C   0  0  0  0  0  0  0  0  0  0  0  0
   -1.3562    6.8181    0.0000 C   0  0  0  0  0  0  0  0  0  0  0  0
   -2.6603    6.4226    0.0000 C   0  0  0  0  0  0  0  0  0  0  0  0
   -3.8622    5.7801    0.0000 C   0  0  0  0  0  0  0  0  0  0  0  0
   -4.9156    4.9156    0.0000 C   0  0  0  0  0  0  0  0  0  0  0  0
   -5.7801    3.8622    0.0000 C   0  0  0  0  0  0  0  0  0  0  0  0
   -6.4226    2.6603    0.0000 C   0  0  0  0  0  0  0  0  0  0  0  0
   -6.8181    1.3562    0.0000 C   0  0  0  0  0  0  0  0  0  0  0  0
   -6.9517    0.0000    0.0000 C   0  0  0  0  0  0  0  0  0  0  0  0
   -6.8181   -1.3562    0.0000 C   0  0  0  0  0  0  0  0  0  0  0  0
   -6.4226   -2.6603    0.0000 C   0  0  0  0  0  0  0  0  0  0  0  0
   -5.7801   -3.8622    0.0000 C   0  0  0  0  0  0  0  0  0  0  0  0
   -4.9156   -4.9156    0.0000 C   0  0  0  0  0  0  0  0  0  0  0  0
   -3.8622   -5.7801    0.0000 C   0  0  0  0  0  0  0  0  0  0  0  0
   -2.6603   -6.4226    0.0000 C   0  0  0  0  0  0  0  0  0  0  0  0
   -1.3562   -6.8181    0.0000 C   0  0  0  0  0  0  0  0  0  0  0  0
   -0.0000   -6.9517    0.0000 C   0  0  0  0  0  0  0  0  0  0  0  0
    1.3562   -6.8181    0.0000 C   0  0  0  0  0  0  0  0  0  0  0  0
    2.6603   -6.4226    0.0000 C   0  0  0  0  0  0  0  0  0  0  0  0
    3.8622   -5.7801    0.0000 C   0  0  0  0  0  0  0  0  0  0  0  0
    4.9156   -4.9156    0.0000 C   0  0  0  0  0  0  0  0  0  0  0  0
    5.7801   -3.8622    0.0000 C   0  0  0  0  0  0  0  0  0  0  0  0
    7.0693   -2.9282    0.0000 C   0  0  0  0  0  0  0  0  0  0  0  0
  1  2  1  0
  2  3  1  0
  3  4  1  0
  4  5  1  0
  5  6  1  0
  6  7  1  0
  7  8  1  0
  8  9  1  0
  9 10  1  0
 10 11  1  0
 11 12  1  0
 12 13  1  0
 13 14  1  0
 14 15  1  0
 15 16  1  0
 16 17  1  0
 17 18  1  0
 18 19  1  0
 19 20  1  0
 20 21  1  0
 21 22  1  0
 22 23  1  0
 23 24  1  0
 24 25  1  0
 25 26  1  0
 26 27  1  0
 27 28  1  0
 28 29  1  0
 29 30  1  0
 30 31  1  0
 31 32  1  0
 32 33  1  0
 33 34  1  0
 34 35  1  0
 35 36  1  0
 36 37  1  0
 37 38  1  0
 38 39  1  0
 39 40  1  0
 40 41  1  0
 41 42  1  0
 42 43  1  0
 43 44  1  0
 44 45  1  0
 45 46  1  0
 46 47  1  0
 47 48  1  0
 48 49  1  0
 49 50  1  0
 50 51  1  0
 51 52  1  0
 52 53  1  0
 53 54  1  0
 54 55  2  0
 55 56  1  0
 56 57  2  0
 57 58  1  0
 58 59  2  0
 59 60  1  0
 60 61  2  0
 61 62  1  0
 62 63  2  0
 63 64  1  0
 64 65  2  0
 65 66  1  0
 66 67  2  0
 67 68  1  0
 68 69  2  0
 69 70  1  0
 70 71  2  0
 71 72  1  0
 72 73  2  0
 73 74  1  0
 74 75  2  0
 75 76  1  0
 76 77  2  0
 77 78  1  0
 78 79  2  0
 79 80  1  0
 80 81  2  0
 81  2  1  0
 81 50  1  0
M  END
>  <Title>  (1231) 
idABTKgen14

$$$$

     RDKit          2D

 29 32  0  0  0  0  0  0  0  0999 V2000
   -3.1981   -1.5132    0.0000 C   0  0  0  0  0  0  0  0  0  0  0  0
   -1.8991   -2.2632    0.0000 C   0  0  0  0  0  0  0  0  0  0  0  0
   -2.1595   -3.7404    0.0000 C   0  0  0  0  0  0  0  0  0  0  0  0
   -1.4095   -5.0395    0.0000 C   0  0  0  0  0  0  0  0  0  0  0  0
   -0.0000   -5.5525    0.0000 C   0  0  0  0  0  0  0  0  0  0  0  0
    1.4095   -5.0395    0.0000 C   0  0  0  0  0  0  0  0  0  0  0  0
    2.1595   -3.7404    0.0000 C   0  0  0  0  0  0  0  0  0  0  0  0
    1.8991   -2.2632    0.0000 C   0  0  0  0  0  0  0  0  0  0  0  0
    3.1981   -1.5132    0.0000 C   0  0  0  0  0  0  0  0  0  0  0  0
    3.1981   -0.0132    0.0000 O   0  0  0  0  0  0  0  0  0  0  0  0
    4.4971   -2.2632    0.0000 N   0  0  0  0  0  0  0  0  0  0  0  0
    5.7962   -1.5132    0.0000 C   0  0  0  0  0  0  0  0  0  0  0  0
    5.9530   -0.0214    0.0000 N   0  0  0  0  0  0  0  0  0  0  0  0
    7.4202    0.2904    0.0000 N   0  0  0  0  0  0  0  0  0  0  0  0
    8.1702   -1.0086    0.0000 N   0  0  0  0  0  0  0  0  0  0  0  0
    7.1665   -2.1233    0.0000 N   0  0  0  0  0  0  0  0  0  0  0  0
    7.4784   -3.5905    0.0000 C   0  0  0  0  0  0  0  0  0  0  0  0
    6.3636   -4.5942    0.0000 C   0  0  0  0  0  0  0  0  0  0  0  0
    6.6755   -6.0615    0.0000 C   0  0  0  0  0  0  0  0  0  0  0  0
    8.1021   -6.5250    0.0000 C   0  0  0  0  0  0  0  0  0  0  0  0
    8.4140   -7.9922    0.0000 O   0  0  0  0  0  0  0  0  0  0  0  0
    9.2168   -5.5213    0.0000 C   0  0  0  0  0  0  0  0  0  0  0  0
    8.9050   -4.0541    0.0000 C   0  0  0  0  0  0  0  0  0  0  0  0
    0.7500   -1.2990    0.0000 C   0  0  0  0  0  0  0  0  0  0  0  0
    1.5000    0.0000    0.0000 C   0  0  0  0  0  0  0  0  0  0  0  0
    0.7500    1.2990    0.0000 C   0  0  0  0  0  0  0  0  0  0  0  0
   -0.7500    1.2990    0.0000 C   0  0  0  0  0  0  0  0  0  0  0  0
   -1.5000    0.0000    0.0000 C   0  0  0  0  0  0  0  0  0  0  0  0
   -0.7500   -1.2990    0.0000 C   0  0  0  0  0  0  0  0  0  0  0  0
  1  2  1  0
  2  3  1  0
  3  4  1  0
  4  5  1  0
  5  6  1  0
  6  7  1  0
  7  8  1  0
  8  9  1  0
  9 10  2  0
  9 11  1  0
 11 12  1  0
 12 13  2  0
 13 14  1  0
 14 15  2  0
 15 16  1  0
 16 17  1  0
 17 18  2  0
 18 19  1  0
 19 20  2  0
 20 21  1  0
 20 22  1  0
 22 23  2  0
  8 24  1  0
 24 25  2  0
 25 26  1  0
 26 27  2  0
 27 28  1  0
 28 29  2  0
 29  2  1  0
 16 12  1  0
 23 17  1  0
 29 24  1  0
M  END
>  <Title>  (1232) 
idABTLgen14

$$$$

     RDKit          2D

 11 11  0  0  0  0  0  0  0  0999 V2000
    3.7500   -3.8971    0.0000 C   0  0  0  0  0  0  0  0  0  0  0  0
    3.0000   -2.5981    0.0000 C   0  0  0  0  0  0  0  0  0  0  0  0
    3.7500   -1.2990    0.0000 C   0  0  0  0  0  0  0  0  0  0  0  0
    5.2500   -1.2990    0.0000 C   0  0  0  0  0  0  0  0  0  0  0  0
    3.0000    0.0000    0.0000 C   0  0  0  0  0  0  0  0  0  0  0  0
    1.5000    0.0000    0.0000 C   0  0  0  0  0  0  0  0  0  0  0  0
    0.7500   -1.2990    0.0000 C   0  0  0  0  0  0  0  0  0  0  0  0
   -0.7500   -1.2990    0.0000 C   0  0  0  0  0  0  0  0  0  0  0  0
   -1.5000    0.0000    0.0000 C   0  0  0  0  0  0  0  0  0  0  0  0
   -0.7500    1.2990    0.0000 N   0  0  0  0  0  0  0  0  0  0  0  0
    0.7500    1.2990    0.0000 C   0  0  0  0  0  0  0  0  0  0  0  0
  1  2  1  0
  2  3  1  0
  3  4  1  0
  3  5  1  0
  5  6  1  0
  6  7  2  0
  7  8  1  0
  8  9  2  0
  9 10  1  0
 10 11  2  0
 11  6  1  0
M  END
>  <Title>  (1233) 
idABTMgen14

$$$$

     RDKit          2D

 16 15  0  0  0  0  0  0  0  0999 V2000
    0.0000    0.0000    0.0000 C   0  0  0  0  0  0  0  0  0  0  0  0
    1.2990    0.7500    0.0000 N   0  0  0  0  0  0  0  0  0  0  0  0
    2.5981   -0.0000    0.0000 C   0  0  0  0  0  0  0  0  0  0  0  0
    2.5981   -1.5000    0.0000 O   0  0  0  0  0  0  0  0  0  0  0  0
    3.8971    0.7500    0.0000 C   0  0  0  0  0  0  0  0  0  0  0  0
    5.1962   -0.0000    0.0000 C   0  0  0  0  0  0  0  0  0  0  0  0
    6.4952    0.7500    0.0000 C   0  0  0  0  0  0  0  0  0  0  0  0
    7.7942   -0.0000    0.0000 C   0  0  0  0  0  0  0  0  0  0  0  0
    7.7942   -1.5000    0.0000 O   0  0  0  0  0  0  0  0  0  0  0  0
    9.0933    0.7500    0.0000 N   0  0  0  0  0  0  0  0  0  0  0  0
   10.3923   -0.0000    0.0000 C   0  0  0  0  0  0  0  0  0  0  0  0
   11.6913    0.7500    0.0000 C   0  0  0  0  0  0  0  0  0  0  0  0
   12.9904   -0.0000    0.0000 N   0  0  0  0  0  0  0  0  0  0  0  0
   14.2894    0.7500    0.0000 N   0  0  0  0  0  0  0  0  0  0  0  0
   15.5885   -0.0000    0.0000 N   0  0  0  0  0  0  0  0  0  0  0  0
   16.8875    0.7500    0.0000 N   0  0  0  0  0  0  0  0  0  0  0  0
  1  2  1  0
  2  3  1  0
  3  4  2  0
  3  5  1  0
  5  6  1  0
  6  7  1  0
  7  8  1  0
  8  9  2  0
  8 10  1  0
 10 11  1  0
 11 12  1  0
 12 13  2  3
 13 14  1  0
 14 15  2  3
 15 16  1  0
M  END
>  <Title>  (1234) 
idABTNgen14

$$$$

     RDKit          2D

 10  9  0  0  0  0  0  0  0  0999 V2000
    0.0000    0.0000    0.0000 C   0  0  0  0  0  0  0  0  0  0  0  0
    1.2990    0.7500    0.0000 C   0  0  0  0  0  0  0  0  0  0  0  0
    2.5981   -0.0000    0.0000 C   0  0  0  0  0  0  0  0  0  0  0  0
    1.2990    2.2500    0.0000 C   0  0  0  0  0  0  0  0  0  0  0  0
    2.5981    3.0000    0.0000 C   0  0  0  0  0  0  0  0  0  0  0  0
    2.5981    4.5000    0.0000 C   0  0  0  0  0  0  0  0  0  0  0  0
    3.8971    2.2500    0.0000 N   0  0  0  0  0  0  0  0  0  0  0  0
    5.1962    3.0000    0.0000 C   0  0  0  0  0  0  0  0  0  0  0  0
    6.4952    2.2500    0.0000 C   0  0  0  0  0  0  0  0  0  0  0  0
    7.7942    3.0000    0.0000 O   0  0  0  0  0  0  0  0  0  0  0  0
  1  2  1  0
  2  3  1  0
  2  4  1  0
  4  5  1  0
  5  6  1  0
  5  7  1  0
  7  8  1  0
  8  9  1  0
  9 10  2  0
M  END
>  <Title>  (1235) 
idABTOgen14

$$$$

     RDKit          2D

 11 11  0  0  0  0  0  0  0  0999 V2000
    6.0000   -2.5981    0.0000 C   0  0  0  0  0  0  0  0  0  0  0  0
    5.2500   -1.2990    0.0000 C   0  0  0  0  0  0  0  0  0  0  0  0
    3.7500   -1.2990    0.0000 C   0  0  0  0  0  0  0  0  0  0  0  0
    3.0000    0.0000    0.0000 C   0  0  0  0  0  0  0  0  0  0  0  0
    3.7500    1.2990    0.0000 O   0  0  0  0  0  0  0  0  0  0  0  0
    1.5000    0.0000    0.0000 C   0  0  0  0  0  0  0  0  0  0  0  0
    0.7500   -1.2990    0.0000 C   0  0  0  0  0  0  0  0  0  0  0  0
   -0.7500   -1.2990    0.0000 C   0  0  0  0  0  0  0  0  0  0  0  0
   -1.5000    0.0000    0.0000 C   0  0  0  0  0  0  0  0  0  0  0  0
   -0.7500    1.2990    0.0000 C   0  0  0  0  0  0  0  0  0  0  0  0
    0.7500    1.2990    0.0000 C   0  0  0  0  0  0  0  0  0  0  0  0
  1  2  2  0
  2  3  1  0
  3  4  1  0
  4  5  1  0
  4  6  1  0
  6  7  2  0
  7  8  1  0
  8  9  2  0
  9 10  1  0
 10 11  2  0
 11  6  1  0
M  END
>  <Title>  (1236) 
idABTPgen14

$$$$

     RDKit          2D

 34 38  0  0  0  0  0  0  0  0999 V2000
   -4.0667   -3.6527    0.0000 N   0  0  0  0  0  0  0  0  0  0  0  0
   -2.6401   -3.1891    0.0000 C   0  0  0  0  0  0  0  0  0  0  0  0
   -1.2135   -2.7256    0.0000 C   0  0  0  0  0  0  0  0  0  0  0  0
   -0.0000   -3.6073    0.0000 C   0  0  0  0  0  0  0  0  0  0  0  0
    1.2135   -2.7256    0.0000 C   0  0  0  0  0  0  0  0  0  0  0  0
    2.6401   -3.1891    0.0000 C   0  0  0  0  0  0  0  0  0  0  0  0
    3.7548   -2.1855    0.0000 O   0  0  0  0  0  0  0  0  0  0  0  0
    2.9520   -4.6564    0.0000 N   0  0  0  0  0  0  0  0  0  0  0  0
    4.3786   -5.1199    0.0000 C   0  0  0  0  0  0  0  0  0  0  0  0
    5.5921   -4.2382    0.0000 N   0  0  0  0  0  0  0  0  0  0  0  0
    6.8056   -5.1199    0.0000 N   0  0  0  0  0  0  0  0  0  0  0  0
    6.3421   -6.5465    0.0000 N   0  0  0  0  0  0  0  0  0  0  0  0
    4.8421   -6.5465    0.0000 N   0  0  0  0  0  0  0  0  0  0  0  0
    3.9604   -7.7600    0.0000 N   0  0  0  0  0  0  0  0  0  0  0  0
    4.4239   -9.1866    0.0000 C   0  0  0  0  0  0  0  0  0  0  0  0
    3.2104  -10.0683    0.0000 C   0  0  0  0  0  0  0  0  0  0  0  0
    1.9969   -9.1866    0.0000 N   0  0  0  0  0  0  0  0  0  0  0  0
    0.5703   -9.6501    0.0000 C   0  0  0  0  0  0  0  0  0  0  0  0
    0.2584  -11.1173    0.0000 O   0  0  0  0  0  0  0  0  0  0  0  0
   -0.5444   -8.6464    0.0000 N   0  0  0  0  0  0  0  0  0  0  0  0
   -1.9710   -9.1099    0.0000 C   0  0  0  0  0  0  0  0  0  0  0  0
   -3.0857   -8.1062    0.0000 N   0  0  0  0  0  0  0  0  0  0  0  0
   -4.5123   -8.5698    0.0000 N   0  0  0  0  0  0  0  0  0  0  0  0
   -4.8242  -10.0370    0.0000 N   0  0  0  0  0  0  0  0  0  0  0  0
   -3.7095  -11.0407    0.0000 N   0  0  0  0  0  0  0  0  0  0  0  0
   -2.2829  -10.5772    0.0000 N   0  0  0  0  0  0  0  0  0  0  0  0
    2.4604   -7.7600    0.0000 C   0  0  0  0  0  0  0  0  0  0  0  0
    1.5787   -6.5465    0.0000 O   0  0  0  0  0  0  0  0  0  0  0  0
    0.7500   -1.2990    0.0000 C   0  0  0  0  0  0  0  0  0  0  0  0
    1.5000    0.0000    0.0000 C   0  0  0  0  0  0  0  0  0  0  0  0
    0.7500    1.2990    0.0000 C   0  0  0  0  0  0  0  0  0  0  0  0
   -0.7500    1.2990    0.0000 C   0  0  0  0  0  0  0  0  0  0  0  0
   -1.5000    0.0000    0.0000 C   0  0  0  0  0  0  0  0  0  0  0  0
   -0.7500   -1.2990    0.0000 C   0  0  0  0  0  0  0  0  0  0  0  0
  1  2  3  0
  2  3  1  0
  3  4  2  0
  4  5  1  0
  5  6  1  0
  6  7  2  0
  6  8  1  0
  8  9  1  0
  9 10  2  0
 10 11  1  0
 11 12  2  0
 12 13  1  0
 13 14  1  0
 14 15  1  0
 15 16  1  0
 16 17  1  0
 17 18  1  0
 18 19  2  0
 18 20  1  0
 20 21  1  0
 21 22  2  0
 22 23  1  0
 23 24  2  0
 24 25  1  0
 25 26  2  0
 17 27  1  0
 27 28  2  0
  5 29  1  0
 29 30  2  0
 30 31  1  0
 31 32  2  0
 32 33  1  0
 33 34  2  0
 34  3  1  0
 13  9  1  0
 27 14  1  0
 34 29  1  0
 26 21  1  0
M  END
>  <Title>  (1237) 
idABTQgen14

$$$$

     RDKit          2D

 13 13  0  0  0  0  0  0  0  0999 V2000
    8.2500    1.2990    0.0000 C   0  0  0  0  0  0  0  0  0  0  0  0
    7.5000   -0.0000    0.0000 C   0  0  0  0  0  0  0  0  0  0  0  0
    6.0000    0.0000    0.0000 C   0  0  0  0  0  0  0  0  0  0  0  0
    5.2500   -1.2990    0.0000 C   0  0  0  0  0  0  0  0  0  0  0  0
    6.0000   -2.5981    0.0000 C   0  0  0  0  0  0  0  0  0  0  0  0
    3.7500   -1.2990    0.0000 N   0  0  0  0  0  0  0  0  0  0  0  0
    3.0000    0.0000    0.0000 C   0  0  0  0  0  0  0  0  0  0  0  0
    1.5000    0.0000    0.0000 C   0  0  0  0  0  0  0  0  0  0  0  0
    0.7500   -1.2990    0.0000 C   0  0  0  0  0  0  0  0  0  0  0  0
   -0.7500   -1.2990    0.0000 C   0  0  0  0  0  0  0  0  0  0  0  0
   -1.5000    0.0000    0.0000 C   0  0  0  0  0  0  0  0  0  0  0  0
   -0.7500    1.2990    0.0000 C   0  0  0  0  0  0  0  0  0  0  0  0
    0.7500    1.2990    0.0000 C   0  0  0  0  0  0  0  0  0  0  0  0
  1  2  1  0
  2  3  1  0
  3  4  1  0
  4  5  1  0
  4  6  1  0
  6  7  1  0
  7  8  1  0
  8  9  2  0
  9 10  1  0
 10 11  2  0
 11 12  1  0
 12 13  2  0
 13  8  1  0
M  END
>  <Title>  (1238) 
idABTRgen14

$$$$

     RDKit          2D

113114  0  0  0  0  0  0  0  0999 V2000
   -2.1446   -1.0919    0.0000 C   0  0  0  0  0  0  0  0  0  0  0  0
   -2.4832    0.3694    0.0000 C   0  0  0  0  0  0  0  0  0  0  0  0
   -3.9536    0.0731    0.0000 C   0  0  0  0  0  0  0  0  0  0  0  0
   -5.4387   -0.1380    0.0000 C   0  0  0  0  0  0  0  0  0  0  0  0
   -6.9335   -0.2633    0.0000 C   0  0  0  0  0  0  0  0  0  0  0  0
   -8.4330   -0.3022    0.0000 C   0  0  0  0  0  0  0  0  0  0  0  0
   -9.9322   -0.2546    0.0000 C   0  0  0  0  0  0  0  0  0  0  0  0
  -11.4262   -0.1208    0.0000 C   0  0  0  0  0  0  0  0  0  0  0  0
  -12.9101    0.0989    0.0000 C   0  0  0  0  0  0  0  0  0  0  0  0
  -14.3788    0.4037    0.0000 C   0  0  0  0  0  0  0  0  0  0  0  0
  -15.8275    0.7926    0.0000 C   0  0  0  0  0  0  0  0  0  0  0  0
  -17.2513    1.2644    0.0000 C   0  0  0  0  0  0  0  0  0  0  0  0
  -18.6457    1.8174    0.0000 C   0  0  0  0  0  0  0  0  0  0  0  0
  -20.0059    2.4498    0.0000 C   0  0  0  0  0  0  0  0  0  0  0  0
  -21.3273    3.1595    0.0000 C   0  0  0  0  0  0  0  0  0  0  0  0
  -22.6057    3.9442    0.0000 C   0  0  0  0  0  0  0  0  0  0  0  0
  -23.8368    4.8012    0.0000 C   0  0  0  0  0  0  0  0  0  0  0  0
  -25.0164    5.7277    0.0000 C   0  0  0  0  0  0  0  0  0  0  0  0
  -26.1408    6.7206    0.0000 C   0  0  0  0  0  0  0  0  0  0  0  0
  -27.2060    7.7767    0.0000 C   0  0  0  0  0  0  0  0  0  0  0  0
  -28.2086    8.8924    0.0000 C   0  0  0  0  0  0  0  0  0  0  0  0
  -29.1453   10.0640    0.0000 C   0  0  0  0  0  0  0  0  0  0  0  0
  -30.0129   11.2876    0.0000 C   0  0  0  0  0  0  0  0  0  0  0  0
  -30.8086   12.5591    0.0000 C   0  0  0  0  0  0  0  0  0  0  0  0
  -31.5297   13.8744    0.0000 C   0  0  0  0  0  0  0  0  0  0  0  0
  -32.1739   15.2291    0.0000 C   0  0  0  0  0  0  0  0  0  0  0  0
  -32.7389   16.6186    0.0000 C   0  0  0  0  0  0  0  0  0  0  0  0
  -33.2229   18.0384    0.0000 C   0  0  0  0  0  0  0  0  0  0  0  0
  -33.6244   19.4836    0.0000 C   0  0  0  0  0  0  0  0  0  0  0  0
  -33.9419   20.9497    0.0000 C   0  0  0  0  0  0  0  0  0  0  0  0
  -34.1744   22.4315    0.0000 C   0  0  0  0  0  0  0  0  0  0  0  0
  -34.3212   23.9243    0.0000 C   0  0  0  0  0  0  0  0  0  0  0  0
  -34.3817   25.4231    0.0000 C   0  0  0  0  0  0  0  0  0  0  0  0
  -34.3557   26.9229    0.0000 C   0  0  0  0  0  0  0  0  0  0  0  0
  -34.2434   28.4187    0.0000 C   0  0  0  0  0  0  0  0  0  0  0  0
  -34.0451   29.9055    0.0000 C   0  0  0  0  0  0  0  0  0  0  0  0
  -33.7615   31.3785    0.0000 C   0  0  0  0  0  0  0  0  0  0  0  0
  -33.3935   32.8326    0.0000 C   0  0  0  0  0  0  0  0  0  0  0  0
  -32.9423   34.2631    0.0000 C   0  0  0  0  0  0  0  0  0  0  0  0
  -32.4095   35.6653    0.0000 C   0  0  0  0  0  0  0  0  0  0  0  0
  -31.7968   37.0345    0.0000 C   0  0  0  0  0  0  0  0  0  0  0  0
  -31.1062   38.3660    0.0000 C   0  0  0  0  0  0  0  0  0  0  0  0
  -30.3400   39.6556    0.0000 C   0  0  0  0  0  0  0  0  0  0  0  0
  -29.5008   40.8989    0.0000 C   0  0  0  0  0  0  0  0  0  0  0  0
  -28.5914   42.0918    0.0000 C   0  0  0  0  0  0  0  0  0  0  0  0
  -27.6147   43.2303    0.0000 C   0  0  0  0  0  0  0  0  0  0  0  0
  -26.5741   44.3106    0.0000 C   0  0  0  0  0  0  0  0  0  0  0  0
  -25.4730   45.3292    0.0000 C   0  0  0  0  0  0  0  0  0  0  0  0
  -24.3151   46.2827    0.0000 C   0  0  0  0  0  0  0  0  0  0  0  0
  -23.1041   47.1678    0.0000 C   0  0  0  0  0  0  0  0  0  0  0  0
  -21.8441   47.9818    0.0000 C   0  0  0  0  0  0  0  0  0  0  0  0
  -20.5393   48.7218    0.0000 C   0  0  0  0  0  0  0  0  0  0  0  0
  -19.1941   49.3854    0.0000 C   0  0  0  0  0  0  0  0  0  0  0  0
  -17.8129   49.9704    0.0000 C   0  0  0  0  0  0  0  0  0  0  0  0
  -16.4003   50.4748    0.0000 C   0  0  0  0  0  0  0  0  0  0  0  0
  -14.9609   50.8970    0.0000 C   0  0  0  0  0  0  0  0  0  0  0  0
  -13.4996   51.2356    0.0000 C   0  0  0  0  0  0  0  0  0  0  0  0
  -12.0213   51.4895    0.0000 C   0  0  0  0  0  0  0  0  0  0  0  0
  -10.5307   51.6577    0.0000 C   0  0  0  0  0  0  0  0  0  0  0  0
   -9.0330   51.7398    0.0000 C   0  0  0  0  0  0  0  0  0  0  0  0
   -7.5330   51.7355    0.0000 C   0  0  0  0  0  0  0  0  0  0  0  0
   -6.0357   51.6448    0.0000 C   0  0  0  0  0  0  0  0  0  0  0  0
   -4.5462   51.4679    0.0000 C   0  0  0  0  0  0  0  0  0  0  0  0
   -3.0693   51.2056    0.0000 C   0  0  0  0  0  0  0  0  0  0  0  0
   -1.6100   50.8585    0.0000 C   0  0  0  0  0  0  0  0  0  0  0  0
   -0.1731   50.4280    0.0000 C   0  0  0  0  0  0  0  0  0  0  0  0
    1.2366   49.9155    0.0000 C   0  0  0  0  0  0  0  0  0  0  0  0
    2.6144   49.3225    0.0000 C   0  0  0  0  0  0  0  0  0  0  0  0
    3.9558   48.6512    0.0000 C   0  0  0  0  0  0  0  0  0  0  0  0
    5.2563   47.9037    0.0000 C   0  0  0  0  0  0  0  0  0  0  0  0
    6.5115   47.0825    0.0000 C   0  0  0  0  0  0  0  0  0  0  0  0
    7.7174   46.1904    0.0000 C   0  0  0  0  0  0  0  0  0  0  0  0
    8.8698   45.2302    0.0000 C   0  0  0  0  0  0  0  0  0  0  0  0
    9.9651   44.2053    0.0000 C   0  0  0  0  0  0  0  0  0  0  0  0
   10.9994   43.1190    0.0000 C   0  0  0  0  0  0  0  0  0  0  0  0
   11.9695   41.9749    0.0000 C   0  0  0  0  0  0  0  0  0  0  0  0
   12.8720   40.7768    0.0000 C   0  0  0  0  0  0  0  0  0  0  0  0
   13.7040   39.5287    0.0000 C   0  0  0  0  0  0  0  0  0  0  0  0
   14.4627   38.2347    0.0000 C   0  0  0  0  0  0  0  0  0  0  0  0
   15.1457   36.8992    0.0000 C   0  0  0  0  0  0  0  0  0  0  0  0
   15.7505   35.5265    0.0000 C   0  0  0  0  0  0  0  0  0  0  0  0
   16.2752   34.1213    0.0000 C   0  0  0  0  0  0  0  0  0  0  0  0
   16.7182   32.6882    0.0000 C   0  0  0  0  0  0  0  0  0  0  0  0
   17.0778   31.2319    0.0000 C   0  0  0  0  0  0  0  0  0  0  0  0
   17.3529   29.7574    0.0000 C   0  0  0  0  0  0  0  0  0  0  0  0
   17.5426   28.2694    0.0000 C   0  0  0  0  0  0  0  0  0  0  0  0
   17.6463   26.7730    0.0000 C   0  0  0  0  0  0  0  0  0  0  0  0
   17.6636   25.2731    0.0000 C   0  0  0  0  0  0  0  0  0  0  0  0
   17.5944   23.7747    0.0000 C   0  0  0  0  0  0  0  0  0  0  0  0
   17.4391   22.2828    0.0000 C   0  0  0  0  0  0  0  0  0  0  0  0
   17.1980   20.8023    0.0000 C   0  0  0  0  0  0  0  0  0  0  0  0
   16.8721   19.3381    0.0000 C   0  0  0  0  0  0  0  0  0  0  0  0
   16.4623   17.8952    0.0000 C   0  0  0  0  0  0  0  0  0  0  0  0
   15.9701   16.4782    0.0000 C   0  0  0  0  0  0  0  0  0  0  0  0
   15.3971   15.0920    0.0000 C   0  0  0  0  0  0  0  0  0  0  0  0
   14.7451   13.7411    0.0000 C   0  0  0  0  0  0  0  0  0  0  0  0
   14.0165   12.4300    0.0000 C   0  0  0  0  0  0  0  0  0  0  0  0
   13.2134   11.1630    0.0000 C   0  0  0  0  0  0  0  0  0  0  0  0
   12.3388    9.9444    0.0000 C   0  0  0  0  0  0  0  0  0  0  0  0
   11.3954    8.7782    0.0000 C   0  0  0  0  0  0  0  0  0  0  0  0
   10.3863    7.6684    0.0000 C   0  0  0  0  0  0  0  0  0  0  0  0
    9.3150    6.6184    0.0000 C   0  0  0  0  0  0  0  0  0  0  0  0
    8.1850    5.6320    0.0000 C   0  0  0  0  0  0  0  0  0  0  0  0
    7.0000    4.7123    0.0000 C   0  0  0  0  0  0  0  0  0  0  0  0
    5.7640    3.8624    0.0000 C   0  0  0  0  0  0  0  0  0  0  0  0
    4.4812    3.0851    0.0000 C   0  0  0  0  0  0  0  0  0  0  0  0
    3.1556    2.3830    0.0000 C   0  0  0  0  0  0  0  0  0  0  0  0
    1.7918    1.7585    0.0000 C   0  0  0  0  0  0  0  0  0  0  0  0
    0.3943    1.2135    0.0000 C   0  0  0  0  0  0  0  0  0  0  0  0
    1.2760    0.0000    0.0000 C   0  0  0  0  0  0  0  0  0  0  0  0
    0.3943   -1.2135    0.0000 C   0  0  0  0  0  0  0  0  0  0  0  0
   -1.0323   -0.7500    0.0000 C   0  0  0  0  0  0  0  0  0  0  0  0
   -1.0323    0.7500    0.0000 C   0  0  0  0  0  0  0  0  0  0  0  0
  1  2  1  0
  2  3  1  0
  3  4  1  0
  4  5  1  0
  5  6  1  0
  6  7  1  0
  7  8  1  0
  8  9  1  0
  9 10  1  0
 10 11  1  0
 11 12  1  0
 12 13  1  0
 13 14  1  0
 14 15  1  0
 15 16  1  0
 16 17  1  0
 17 18  1  0
 18 19  1  0
 19 20  1  0
 20 21  1  0
 21 22  1  0
 22 23  1  0
 23 24  1  0
 24 25  1  0
 25 26  1  0
 26 27  1  0
 27 28  1  0
 28 29  1  0
 29 30  1  0
 30 31  1  0
 31 32  1  0
 32 33  1  0
 33 34  1  0
 34 35  1  0
 35 36  1  0
 36 37  1  0
 37 38  1  0
 38 39  1  0
 39 40  1  0
 40 41  1  0
 41 42  1  0
 42 43  1  0
 43 44  1  0
 44 45  1  0
 45 46  1  0
 46 47  1  0
 47 48  1  0
 48 49  1  0
 49 50  1  0
 50 51  1  0
 51 52  1  0
 52 53  1  0
 53 54  1  0
 54 55  1  0
 55 56  1  0
 56 57  1  0
 57 58  1  0
 58 59  1  0
 59 60  1  0
 60 61  1  0
 61 62  1  0
 62 63  1  0
 63 64  1  0
 64 65  1  0
 65 66  1  0
 66 67  1  0
 67 68  1  0
 68 69  1  0
 69 70  1  0
 70 71  1  0
 71 72  1  0
 72 73  1  0
 73 74  1  0
 74 75  1  0
 75 76  1  0
 76 77  1  0
 77 78  1  0
 78 79  1  0
 79 80  1  0
 80 81  1  0
 81 82  1  0
 82 83  1  0
 83 84  1  0
 84 85  1  0
 85 86  1  0
 86 87  1  0
 87 88  1  0
 88 89  1  0
 89 90  1  0
 90 91  1  0
 91 92  1  0
 92 93  1  0
 93 94  1  0
 94 95  1  0
 95 96  1  0
 96 97  1  0
 97 98  1  0
 98 99  1  0
 99100  1  0
100101  1  0
101102  1  0
102103  1  0
103104  1  0
104105  2  0
105106  1  0
106107  2  0
107108  1  0
108109  2  0
109110  1  0
110111  2  0
111112  1  0
112113  2  0
113  2  1  0
113109  1  0
M  END
>  <Title>  (1239) 
idABTSgen14

$$$$

     RDKit          2D

 32 35  0  0  0  0  0  0  0  0999 V2000
    3.2286   -0.0000    0.0000 C   0  0  0  0  0  0  0  0  0  0  0  0
    1.7286    0.0000    0.0000 C   0  0  0  0  0  0  0  0  0  0  0  0
    1.0777    1.3515    0.0000 C   0  0  0  0  0  0  0  0  0  0  0  0
   -0.3846    1.6852    0.0000 C   0  0  0  0  0  0  0  0  0  0  0  0
   -1.5574    0.7500    0.0000 C   0  0  0  0  0  0  0  0  0  0  0  0
   -1.5574   -0.7500    0.0000 C   0  0  0  0  0  0  0  0  0  0  0  0
   -0.3846   -1.6852    0.0000 C   0  0  0  0  0  0  0  0  0  0  0  0
   -0.7184   -3.1476    0.0000 C   0  0  0  0  0  0  0  0  0  0  0  0
    0.3812   -4.1679    0.0000 O   0  0  0  0  0  0  0  0  0  0  0  0
   -2.1518   -3.5898    0.0000 N   0  0  0  0  0  0  0  0  0  0  0  0
   -2.4856   -5.0522    0.0000 C   0  0  0  0  0  0  0  0  0  0  0  0
   -1.4987   -6.1818    0.0000 N   0  0  0  0  0  0  0  0  0  0  0  0
   -2.2680   -7.4694    0.0000 N   0  0  0  0  0  0  0  0  0  0  0  0
   -3.7304   -7.1357    0.0000 N   0  0  0  0  0  0  0  0  0  0  0  0
   -3.8649   -5.6417    0.0000 N   0  0  0  0  0  0  0  0  0  0  0  0
   -5.1525   -4.8723    0.0000 N   0  0  0  0  0  0  0  0  0  0  0  0
   -6.5318   -5.4619    0.0000 C   0  0  0  0  0  0  0  0  0  0  0  0
   -7.5187   -4.3323    0.0000 C   0  0  0  0  0  0  0  0  0  0  0  0
   -6.7494   -3.0446    0.0000 N   0  0  0  0  0  0  0  0  0  0  0  0
   -7.3389   -1.6653    0.0000 C   0  0  0  0  0  0  0  0  0  0  0  0
   -8.8282   -1.4862    0.0000 O   0  0  0  0  0  0  0  0  0  0  0  0
   -6.4392   -0.4651    0.0000 N   0  0  0  0  0  0  0  0  0  0  0  0
   -7.0287    0.9142    0.0000 C   0  0  0  0  0  0  0  0  0  0  0  0
   -6.1290    2.1144    0.0000 N   0  0  0  0  0  0  0  0  0  0  0  0
   -6.7185    3.4937    0.0000 N   0  0  0  0  0  0  0  0  0  0  0  0
   -8.2078    3.6728    0.0000 N   0  0  0  0  0  0  0  0  0  0  0  0
   -9.1075    2.4726    0.0000 N   0  0  0  0  0  0  0  0  0  0  0  0
   -8.5180    1.0933    0.0000 N   0  0  0  0  0  0  0  0  0  0  0  0
   -5.2870   -3.3784    0.0000 C   0  0  0  0  0  0  0  0  0  0  0  0
   -4.1574   -2.3915    0.0000 O   0  0  0  0  0  0  0  0  0  0  0  0
    1.0777   -1.3515    0.0000 C   0  0  0  0  0  0  0  0  0  0  0  0
    2.0130   -2.5242    0.0000 O   0  0  0  0  0  0  0  0  0  0  0  0
  1  2  1  0
  2  3  1  0
  3  4  2  0
  4  5  1  0
  5  6  1  0
  6  7  1  0
  7  8  1  0
  8  9  2  0
  8 10  1  0
 10 11  1  0
 11 12  2  0
 12 13  1  0
 13 14  2  0
 14 15  1  0
 15 16  1  0
 16 17  1  0
 17 18  1  0
 18 19  1  0
 19 20  1  0
 20 21  2  0
 20 22  1  0
 22 23  1  0
 23 24  2  0
 24 25  1  0
 25 26  2  0
 26 27  1  0
 27 28  2  0
 19 29  1  0
 29 30  2  0
  7 31  1  0
 31 32  2  0
 31  2  1  0
 15 11  1  0
 29 16  1  0
 28 23  1  0
M  END
>  <Title>  (1240) 
idABTTgen14

$$$$

     RDKit          2D

 12 11  0  0  0  0  0  0  0  0999 V2000
    0.0000    0.0000    0.0000 C   0  0  0  0  0  0  0  0  0  0  0  0
    1.2990    0.7500    0.0000 C   0  0  0  0  0  0  0  0  0  0  0  0
    2.5981   -0.0000    0.0000 C   0  0  0  0  0  0  0  0  0  0  0  0
    3.8971    0.7500    0.0000 C   0  0  0  0  0  0  0  0  0  0  0  0
    5.1962   -0.0000    0.0000 C   0  0  0  0  0  0  0  0  0  0  0  0
    6.4952   -0.7500    0.0000 N   0  0  0  0  0  0  0  0  0  0  0  0
    3.8971    2.2500    0.0000 N   0  0  0  0  0  0  0  0  0  0  0  0
    5.1962    3.0000    0.0000 C   0  0  0  0  0  0  0  0  0  0  0  0
    6.4952    2.2500    0.0000 O   0  0  0  0  0  0  0  0  0  0  0  0
    5.1962    4.5000    0.0000 C   0  0  0  0  0  0  0  0  0  0  0  0
    6.4952    5.2500    0.0000 C   0  0  0  0  0  0  0  0  0  0  0  0
    6.4952    6.7500    0.0000 C   0  0  0  0  0  0  0  0  0  0  0  0
  1  2  1  0
  2  3  2  3
  3  4  1  0
  4  5  1  0
  5  6  3  0
  4  7  1  0
  7  8  1  0
  8  9  2  0
  8 10  1  0
 10 11  1  0
 11 12  1  0
M  END
>  <Title>  (1241) 
idABTUgen14

$$$$

     RDKit          2D

 33 37  0  0  0  0  0  0  0  0999 V2000
    0.6531   -8.1799    0.0000 C   0  0  0  0  0  0  0  0  0  0  0  0
   -0.7958   -8.5681    0.0000 C   0  0  0  0  0  0  0  0  0  0  0  0
   -1.5458   -9.8672    0.0000 C   0  0  0  0  0  0  0  0  0  0  0  0
   -1.5458  -11.3672    0.0000 C   0  0  0  0  0  0  0  0  0  0  0  0
   -2.8449  -12.1172    0.0000 C   0  0  0  0  0  0  0  0  0  0  0  0
   -4.1439  -11.3672    0.0000 C   0  0  0  0  0  0  0  0  0  0  0  0
   -4.1439   -9.8672    0.0000 C   0  0  0  0  0  0  0  0  0  0  0  0
   -2.8449   -9.1172    0.0000 C   0  0  0  0  0  0  0  0  0  0  0  0
   -2.0949   -7.8181    0.0000 C   0  0  0  0  0  0  0  0  0  0  0  0
   -2.4831   -6.3692    0.0000 C   0  0  0  0  0  0  0  0  0  0  0  0
   -3.9320   -5.9810    0.0000 C   0  0  0  0  0  0  0  0  0  0  0  0
   -4.9926   -7.0417    0.0000 O   0  0  0  0  0  0  0  0  0  0  0  0
   -4.3202   -4.5321    0.0000 N   0  0  0  0  0  0  0  0  0  0  0  0
   -5.7691   -4.1439    0.0000 C   0  0  0  0  0  0  0  0  0  0  0  0
   -6.9348   -5.0879    0.0000 N   0  0  0  0  0  0  0  0  0  0  0  0
   -8.1928   -4.2709    0.0000 N   0  0  0  0  0  0  0  0  0  0  0  0
   -7.8046   -2.8220    0.0000 N   0  0  0  0  0  0  0  0  0  0  0  0
   -6.3066   -2.7435    0.0000 N   0  0  0  0  0  0  0  0  0  0  0  0
   -5.4897   -1.4855    0.0000 N   0  0  0  0  0  0  0  0  0  0  0  0
   -3.9917   -1.4070    0.0000 C   0  0  0  0  0  0  0  0  0  0  0  0
   -3.6035    0.0419    0.0000 C   0  0  0  0  0  0  0  0  0  0  0  0
   -4.8615    0.8588    0.0000 N   0  0  0  0  0  0  0  0  0  0  0  0
   -4.9400    2.3568    0.0000 C   0  0  0  0  0  0  0  0  0  0  0  0
   -6.2765    3.0378    0.0000 O   0  0  0  0  0  0  0  0  0  0  0  0
   -3.6820    3.1737    0.0000 N   0  0  0  0  0  0  0  0  0  0  0  0
   -3.7605    4.6717    0.0000 C   0  0  0  0  0  0  0  0  0  0  0  0
   -5.0970    5.3527    0.0000 N   0  0  0  0  0  0  0  0  0  0  0  0
   -5.1755    6.8506    0.0000 N   0  0  0  0  0  0  0  0  0  0  0  0
   -3.9175    7.6676    0.0000 N   0  0  0  0  0  0  0  0  0  0  0  0
   -2.5810    6.9866    0.0000 N   0  0  0  0  0  0  0  0  0  0  0  0
   -2.5025    5.4886    0.0000 N   0  0  0  0  0  0  0  0  0  0  0  0
   -6.0272   -0.0852    0.0000 C   0  0  0  0  0  0  0  0  0  0  0  0
   -7.4761    0.3031    0.0000 O   0  0  0  0  0  0  0  0  0  0  0  0
  1  2  1  0
  2  3  1  0
  3  4  2  0
  4  5  1  0
  5  6  2  0
  6  7  1  0
  7  8  2  0
  8  9  1  0
  9 10  1  0
 10 11  1  0
 11 12  2  0
 11 13  1  0
 13 14  1  0
 14 15  2  0
 15 16  1  0
 16 17  2  0
 17 18  1  0
 18 19  1  0
 19 20  1  0
 20 21  1  0
 21 22  1  0
 22 23  1  0
 23 24  2  0
 23 25  1  0
 25 26  1  0
 26 27  2  0
 27 28  1  0
 28 29  2  0
 29 30  1  0
 30 31  2  0
 22 32  1  0
 32 33  2  0
  9  2  1  0
 18 14  1  0
 32 19  1  0
  8  3  1  0
 31 26  1  0
M  END
>  <Title>  (1242) 
idABTVgen14

$$$$

     RDKit          2D

 41 46  0  0  0  0  0  0  0  0999 V2000
   -2.3737   -6.1885    0.0000 C   0  0  0  0  0  0  0  0  0  0  0  0
   -1.4095   -5.0395    0.0000 C   0  0  0  0  0  0  0  0  0  0  0  0
   -0.0000   -5.5525    0.0000 C   0  0  0  0  0  0  0  0  0  0  0  0
    1.4095   -5.0395    0.0000 C   0  0  0  0  0  0  0  0  0  0  0  0
    2.1595   -3.7404    0.0000 C   0  0  0  0  0  0  0  0  0  0  0  0
    1.8991   -2.2632    0.0000 C   0  0  0  0  0  0  0  0  0  0  0  0
    3.1981   -1.5132    0.0000 C   0  0  0  0  0  0  0  0  0  0  0  0
    3.1981   -0.0132    0.0000 O   0  0  0  0  0  0  0  0  0  0  0  0
    4.4971   -2.2632    0.0000 N   0  0  0  0  0  0  0  0  0  0  0  0
    5.7962   -1.5132    0.0000 C   0  0  0  0  0  0  0  0  0  0  0  0
    5.9530   -0.0214    0.0000 N   0  0  0  0  0  0  0  0  0  0  0  0
    7.4202    0.2904    0.0000 N   0  0  0  0  0  0  0  0  0  0  0  0
    8.1702   -1.0086    0.0000 N   0  0  0  0  0  0  0  0  0  0  0  0
    7.1665   -2.1233    0.0000 N   0  0  0  0  0  0  0  0  0  0  0  0
    7.4784   -3.5905    0.0000 C   0  0  0  0  0  0  0  0  0  0  0  0
    8.8487   -4.2007    0.0000 C   0  0  0  0  0  0  0  0  0  0  0  0
    8.6919   -5.6924    0.0000 C   0  0  0  0  0  0  0  0  0  0  0  0
    7.2247   -6.0043    0.0000 C   0  0  0  0  0  0  0  0  0  0  0  0
    6.6146   -7.3746    0.0000 C   0  0  0  0  0  0  0  0  0  0  0  0
    7.4962   -8.5881    0.0000 O   0  0  0  0  0  0  0  0  0  0  0  0
    5.1228   -7.5314    0.0000 N   0  0  0  0  0  0  0  0  0  0  0  0
    4.5127   -8.9017    0.0000 C   0  0  0  0  0  0  0  0  0  0  0  0
    3.0209   -9.0585    0.0000 N   0  0  0  0  0  0  0  0  0  0  0  0
    2.4108  -10.4288    0.0000 N   0  0  0  0  0  0  0  0  0  0  0  0
    3.2925  -11.6424    0.0000 N   0  0  0  0  0  0  0  0  0  0  0  0
    4.7843  -11.4856    0.0000 N   0  0  0  0  0  0  0  0  0  0  0  0
    5.3944  -10.1153    0.0000 N   0  0  0  0  0  0  0  0  0  0  0  0
    6.4747   -4.7053    0.0000 C   0  0  0  0  0  0  0  0  0  0  0  0
    4.9829   -4.5485    0.0000 O   0  0  0  0  0  0  0  0  0  0  0  0
    0.7500   -1.2990    0.0000 C   0  0  0  0  0  0  0  0  0  0  0  0
    1.5000    0.0000    0.0000 C   0  0  0  0  0  0  0  0  0  0  0  0
    0.7500    1.2990    0.0000 C   0  0  0  0  0  0  0  0  0  0  0  0
   -0.7500    1.2990    0.0000 C   0  0  0  0  0  0  0  0  0  0  0  0
   -1.5000    0.0000    0.0000 C   0  0  0  0  0  0  0  0  0  0  0  0
   -0.7500   -1.2990    0.0000 C   0  0  0  0  0  0  0  0  0  0  0  0
   -1.8991   -2.2632    0.0000 C   0  0  0  0  0  0  0  0  0  0  0  0
   -3.0481   -1.2990    0.0000 C   0  0  0  0  0  0  0  0  0  0  0  0
   -4.4577   -1.8121    0.0000 C   0  0  0  0  0  0  0  0  0  0  0  0
   -4.7181   -3.2893    0.0000 C   0  0  0  0  0  0  0  0  0  0  0  0
   -3.5691   -4.2535    0.0000 C   0  0  0  0  0  0  0  0  0  0  0  0
   -2.1595   -3.7404    0.0000 C   0  0  0  0  0  0  0  0  0  0  0  0
  1  2  1  0
  2  3  1  0
  3  4  1  0
  4  5  1  0
  5  6  1  0
  6  7  1  0
  7  8  2  0
  7  9  1  0
  9 10  1  0
 10 11  2  0
 11 12  1  0
 12 13  2  0
 13 14  1  0
 14 15  1  0
 15 16  2  0
 16 17  1  0
 17 18  2  0
 18 19  1  0
 19 20  2  0
 19 21  1  0
 21 22  1  0
 22 23  2  0
 23 24  1  0
 24 25  2  0
 25 26  1  0
 26 27  2  0
 18 28  1  0
 28 29  2  0
  6 30  1  0
 30 31  2  0
 31 32  1  0
 32 33  2  0
 33 34  1  0
 34 35  2  0
 35 36  1  0
 36 37  2  0
 37 38  1  0
 38 39  2  0
 39 40  1  0
 40 41  2  0
 41  2  1  0
 14 10  1  0
 28 15  1  0
 35 30  1  0
 41 36  1  0
 27 22  1  0
M  END
>  <Title>  (1243) 
idABTWgen14

$$$$

     RDKit          2D

 34 38  0  0  0  0  0  0  0  0999 V2000
   10.0051   -0.5013    0.0000 C   0  0  0  0  0  0  0  0  0  0  0  0
    8.5134   -0.6581    0.0000 C   0  0  0  0  0  0  0  0  0  0  0  0
    7.7634   -1.9571    0.0000 C   0  0  0  0  0  0  0  0  0  0  0  0
    6.2961   -1.6453    0.0000 C   0  0  0  0  0  0  0  0  0  0  0  0
    5.1814   -2.6490    0.0000 O   0  0  0  0  0  0  0  0  0  0  0  0
    5.4933   -4.1162    0.0000 C   0  0  0  0  0  0  0  0  0  0  0  0
    6.9199   -4.5797    0.0000 O   0  0  0  0  0  0  0  0  0  0  0  0
    4.3786   -5.1199    0.0000 N   0  0  0  0  0  0  0  0  0  0  0  0
    4.6904   -6.5871    0.0000 C   0  0  0  0  0  0  0  0  0  0  0  0
    6.0607   -7.1972    0.0000 N   0  0  0  0  0  0  0  0  0  0  0  0
    5.9040   -8.6890    0.0000 N   0  0  0  0  0  0  0  0  0  0  0  0
    4.4367   -9.0009    0.0000 N   0  0  0  0  0  0  0  0  0  0  0  0
    3.6867   -7.7018    0.0000 N   0  0  0  0  0  0  0  0  0  0  0  0
    2.1950   -7.5450    0.0000 N   0  0  0  0  0  0  0  0  0  0  0  0
    1.4450   -6.2460    0.0000 C   0  0  0  0  0  0  0  0  0  0  0  0
   -0.0223   -6.5579    0.0000 C   0  0  0  0  0  0  0  0  0  0  0  0
   -0.1791   -8.0497    0.0000 N   0  0  0  0  0  0  0  0  0  0  0  0
   -1.4781   -8.7997    0.0000 C   0  0  0  0  0  0  0  0  0  0  0  0
   -1.4781  -10.2997    0.0000 O   0  0  0  0  0  0  0  0  0  0  0  0
   -2.7771   -8.0497    0.0000 N   0  0  0  0  0  0  0  0  0  0  0  0
   -4.0762   -8.7997    0.0000 C   0  0  0  0  0  0  0  0  0  0  0  0
   -4.0762  -10.2997    0.0000 N   0  0  0  0  0  0  0  0  0  0  0  0
   -5.3752  -11.0497    0.0000 N   0  0  0  0  0  0  0  0  0  0  0  0
   -6.6743  -10.2997    0.0000 N   0  0  0  0  0  0  0  0  0  0  0  0
   -6.6743   -8.7997    0.0000 N   0  0  0  0  0  0  0  0  0  0  0  0
   -5.3752   -8.0497    0.0000 N   0  0  0  0  0  0  0  0  0  0  0  0
    1.1913   -8.6598    0.0000 C   0  0  0  0  0  0  0  0  0  0  0  0
    1.5031  -10.1270    0.0000 O   0  0  0  0  0  0  0  0  0  0  0  0
    6.1393   -0.1535    0.0000 C   0  0  0  0  0  0  0  0  0  0  0  0
    4.9258    0.7282    0.0000 C   0  0  0  0  0  0  0  0  0  0  0  0
    5.0826    2.2200    0.0000 C   0  0  0  0  0  0  0  0  0  0  0  0
    6.4529    2.8301    0.0000 C   0  0  0  0  0  0  0  0  0  0  0  0
    7.6664    1.9484    0.0000 C   0  0  0  0  0  0  0  0  0  0  0  0
    7.5097    0.4566    0.0000 C   0  0  0  0  0  0  0  0  0  0  0  0
  1  2  1  0
  2  3  2  0
  3  4  1  0
  4  5  1  0
  5  6  1  0
  6  7  2  0
  6  8  1  0
  8  9  1  0
  9 10  2  0
 10 11  1  0
 11 12  2  0
 12 13  1  0
 13 14  1  0
 14 15  1  0
 15 16  1  0
 16 17  1  0
 17 18  1  0
 18 19  2  0
 18 20  1  0
 20 21  1  0
 21 22  2  0
 22 23  1  0
 23 24  2  0
 24 25  1  0
 25 26  2  0
 17 27  1  0
 27 28  2  0
  4 29  1  0
 29 30  2  0
 30 31  1  0
 31 32  2  0
 32 33  1  0
 33 34  2  0
 34  2  1  0
 13  9  1  0
 27 14  1  0
 34 29  1  0
 26 21  1  0
M  END
>  <Title>  (1244) 
idABTXgen14

$$$$

     RDKit          2D

 14 14  0  0  0  0  0  0  0  0999 V2000
    6.0000   -5.1962    0.0000 C   0  0  0  0  0  0  0  0  0  0  0  0
    5.2500   -3.8971    0.0000 C   0  0  0  0  0  0  0  0  0  0  0  0
    6.0000   -2.5981    0.0000 C   0  0  0  0  0  0  0  0  0  0  0  0
    7.5000   -2.5981    0.0000 C   0  0  0  0  0  0  0  0  0  0  0  0
    5.2500   -1.2990    0.0000 C   0  0  0  0  0  0  0  0  0  0  0  0
    6.0000    0.0000    0.0000 O   0  0  0  0  0  0  0  0  0  0  0  0
    3.7500   -1.2990    0.0000 N   0  0  0  0  0  0  0  0  0  0  0  0
    3.0000    0.0000    0.0000 C   0  0  0  0  0  0  0  0  0  0  0  0
    1.5000    0.0000    0.0000 C   0  0  0  0  0  0  0  0  0  0  0  0
    0.7500   -1.2990    0.0000 C   0  0  0  0  0  0  0  0  0  0  0  0
   -0.7500   -1.2990    0.0000 C   0  0  0  0  0  0  0  0  0  0  0  0
   -1.5000    0.0000    0.0000 C   0  0  0  0  0  0  0  0  0  0  0  0
   -0.7500    1.2990    0.0000 N   0  0  0  0  0  0  0  0  0  0  0  0
    0.7500    1.2990    0.0000 C   0  0  0  0  0  0  0  0  0  0  0  0
  1  2  1  0
  2  3  1  0
  3  4  1  0
  3  5  1  0
  5  6  2  0
  5  7  1  0
  7  8  1  0
  8  9  1  0
  9 10  2  0
 10 11  1  0
 11 12  2  0
 12 13  1  0
 13 14  2  0
 14  9  1  0
M  END
>  <Title>  (1245) 
idABTYgen14

$$$$

     RDKit          2D

105106  0  0  0  0  0  0  0  0999 V2000
   -2.1563   -1.0875    0.0000 C   0  0  0  0  0  0  0  0  0  0  0  0
   -2.4849    0.3761    0.0000 C   0  0  0  0  0  0  0  0  0  0  0  0
   -3.9580    0.0932    0.0000 C   0  0  0  0  0  0  0  0  0  0  0  0
   -5.4458   -0.0976    0.0000 C   0  0  0  0  0  0  0  0  0  0  0  0
   -6.9426   -0.1955    0.0000 C   0  0  0  0  0  0  0  0  0  0  0  0
   -8.4426   -0.2002    0.0000 C   0  0  0  0  0  0  0  0  0  0  0  0
   -9.9400   -0.1116    0.0000 C   0  0  0  0  0  0  0  0  0  0  0  0
  -11.4290    0.0699    0.0000 C   0  0  0  0  0  0  0  0  0  0  0  0
  -12.9038    0.3437    0.0000 C   0  0  0  0  0  0  0  0  0  0  0  0
  -14.3587    0.7085    0.0000 C   0  0  0  0  0  0  0  0  0  0  0  0
  -15.7882    1.1632    0.0000 C   0  0  0  0  0  0  0  0  0  0  0  0
  -17.1866    1.7058    0.0000 C   0  0  0  0  0  0  0  0  0  0  0  0
  -18.5486    2.3343    0.0000 C   0  0  0  0  0  0  0  0  0  0  0  0
  -19.8688    3.0463    0.0000 C   0  0  0  0  0  0  0  0  0  0  0  0
  -21.1423    3.8390    0.0000 C   0  0  0  0  0  0  0  0  0  0  0  0
  -22.3640    4.7093    0.0000 C   0  0  0  0  0  0  0  0  0  0  0  0
  -23.5292    5.6539    0.0000 C   0  0  0  0  0  0  0  0  0  0  0  0
  -24.6334    6.6691    0.0000 C   0  0  0  0  0  0  0  0  0  0  0  0
  -25.6724    7.7510    0.0000 C   0  0  0  0  0  0  0  0  0  0  0  0
  -26.6422    8.8954    0.0000 C   0  0  0  0  0  0  0  0  0  0  0  0
  -27.5389   10.0978    0.0000 C   0  0  0  0  0  0  0  0  0  0  0  0
  -28.3591   11.3537    0.0000 C   0  0  0  0  0  0  0  0  0  0  0  0
  -29.0996   12.6582    0.0000 C   0  0  0  0  0  0  0  0  0  0  0  0
  -29.7577   14.0061    0.0000 C   0  0  0  0  0  0  0  0  0  0  0  0
  -30.3306   15.3924    0.0000 C   0  0  0  0  0  0  0  0  0  0  0  0
  -30.8163   16.8116    0.0000 C   0  0  0  0  0  0  0  0  0  0  0  0
  -31.2128   18.2582    0.0000 C   0  0  0  0  0  0  0  0  0  0  0  0
  -31.5185   19.7267    0.0000 C   0  0  0  0  0  0  0  0  0  0  0  0
  -31.7324   21.2114    0.0000 C   0  0  0  0  0  0  0  0  0  0  0  0
  -31.8536   22.7065    0.0000 C   0  0  0  0  0  0  0  0  0  0  0  0
  -31.8816   24.2063    0.0000 C   0  0  0  0  0  0  0  0  0  0  0  0
  -31.8163   25.7048    0.0000 C   0  0  0  0  0  0  0  0  0  0  0  0
  -31.6580   27.1965    0.0000 C   0  0  0  0  0  0  0  0  0  0  0  0
  -31.4072   28.6753    0.0000 C   0  0  0  0  0  0  0  0  0  0  0  0
  -31.0650   30.1358    0.0000 C   0  0  0  0  0  0  0  0  0  0  0  0
  -30.6326   31.5721    0.0000 C   0  0  0  0  0  0  0  0  0  0  0  0
  -30.1118   32.9788    0.0000 C   0  0  0  0  0  0  0  0  0  0  0  0
  -29.5045   34.3504    0.0000 C   0  0  0  0  0  0  0  0  0  0  0  0
  -28.8132   35.6816    0.0000 C   0  0  0  0  0  0  0  0  0  0  0  0
  -28.0404   36.9672    0.0000 C   0  0  0  0  0  0  0  0  0  0  0  0
  -27.1892   38.2023    0.0000 C   0  0  0  0  0  0  0  0  0  0  0  0
  -26.2628   39.3820    0.0000 C   0  0  0  0  0  0  0  0  0  0  0  0
  -25.2649   40.5019    0.0000 C   0  0  0  0  0  0  0  0  0  0  0  0
  -24.1993   41.5576    0.0000 C   0  0  0  0  0  0  0  0  0  0  0  0
  -23.0702   42.5451    0.0000 C   0  0  0  0  0  0  0  0  0  0  0  0
  -21.8818   43.4604    0.0000 C   0  0  0  0  0  0  0  0  0  0  0  0
  -20.6388   44.3000    0.0000 C   0  0  0  0  0  0  0  0  0  0  0  0
  -19.3460   45.0608    0.0000 C   0  0  0  0  0  0  0  0  0  0  0  0
  -18.0085   45.7397    0.0000 C   0  0  0  0  0  0  0  0  0  0  0  0
  -16.6313   46.3341    0.0000 C   0  0  0  0  0  0  0  0  0  0  0  0
  -15.2198   46.8418    0.0000 C   0  0  0  0  0  0  0  0  0  0  0  0
  -13.7795   47.2607    0.0000 C   0  0  0  0  0  0  0  0  0  0  0  0
  -12.3159   47.5893    0.0000 C   0  0  0  0  0  0  0  0  0  0  0  0
  -10.8348   47.8262    0.0000 C   0  0  0  0  0  0  0  0  0  0  0  0
   -9.3417   47.9706    0.0000 C   0  0  0  0  0  0  0  0  0  0  0  0
   -7.8426   48.0220    0.0000 C   0  0  0  0  0  0  0  0  0  0  0  0
   -6.3432   47.9800    0.0000 C   0  0  0  0  0  0  0  0  0  0  0  0
   -4.8493   47.8449    0.0000 C   0  0  0  0  0  0  0  0  0  0  0  0
   -3.3667   47.6171    0.0000 C   0  0  0  0  0  0  0  0  0  0  0  0
   -1.9011   47.2976    0.0000 C   0  0  0  0  0  0  0  0  0  0  0  0
   -0.4582   46.8877    0.0000 C   0  0  0  0  0  0  0  0  0  0  0  0
    0.9564   46.3888    0.0000 C   0  0  0  0  0  0  0  0  0  0  0  0
    2.3373   45.8029    0.0000 C   0  0  0  0  0  0  0  0  0  0  0  0
    3.6790   45.1324    0.0000 C   0  0  0  0  0  0  0  0  0  0  0  0
    4.9765   44.3797    0.0000 C   0  0  0  0  0  0  0  0  0  0  0  0
    6.2247   43.5478    0.0000 C   0  0  0  0  0  0  0  0  0  0  0  0
    7.4187   42.6399    0.0000 C   0  0  0  0  0  0  0  0  0  0  0  0
    8.5540   41.6595    0.0000 C   0  0  0  0  0  0  0  0  0  0  0  0
    9.6262   40.6105    0.0000 C   0  0  0  0  0  0  0  0  0  0  0  0
   10.6310   39.4968    0.0000 C   0  0  0  0  0  0  0  0  0  0  0  0
   11.5647   38.3228    0.0000 C   0  0  0  0  0  0  0  0  0  0  0  0
   12.4236   37.0930    0.0000 C   0  0  0  0  0  0  0  0  0  0  0  0
   13.2043   35.8123    0.0000 C   0  0  0  0  0  0  0  0  0  0  0  0
   13.9039   34.4854    0.0000 C   0  0  0  0  0  0  0  0  0  0  0  0
   14.5197   33.1176    0.0000 C   0  0  0  0  0  0  0  0  0  0  0  0
   15.0493   31.7142    0.0000 C   0  0  0  0  0  0  0  0  0  0  0  0
   15.4906   30.2806    0.0000 C   0  0  0  0  0  0  0  0  0  0  0  0
   15.8419   28.8223    0.0000 C   0  0  0  0  0  0  0  0  0  0  0  0
   16.1018   27.3450    0.0000 C   0  0  0  0  0  0  0  0  0  0  0  0
   16.2694   25.8544    0.0000 C   0  0  0  0  0  0  0  0  0  0  0  0
   16.3441   24.3563    0.0000 C   0  0  0  0  0  0  0  0  0  0  0  0
   16.3254   22.8564    0.0000 C   0  0  0  0  0  0  0  0  0  0  0  0
   16.2135   21.3606    0.0000 C   0  0  0  0  0  0  0  0  0  0  0  0
   16.0089   19.8746    0.0000 C   0  0  0  0  0  0  0  0  0  0  0  0
   15.7122   18.4042    0.0000 C   0  0  0  0  0  0  0  0  0  0  0  0
   15.3248   16.9551    0.0000 C   0  0  0  0  0  0  0  0  0  0  0  0
   14.8479   15.5329    0.0000 C   0  0  0  0  0  0  0  0  0  0  0  0
   14.2836   14.1431    0.0000 C   0  0  0  0  0  0  0  0  0  0  0  0
   13.6340   12.7911    0.0000 C   0  0  0  0  0  0  0  0  0  0  0  0
   12.9016   11.4821    0.0000 C   0  0  0  0  0  0  0  0  0  0  0  0
   12.0892   10.2211    0.0000 C   0  0  0  0  0  0  0  0  0  0  0  0
   11.2000    9.0131    0.0000 C   0  0  0  0  0  0  0  0  0  0  0  0
   10.2374    7.8627    0.0000 C   0  0  0  0  0  0  0  0  0  0  0  0
    9.2051    6.7744    0.0000 C   0  0  0  0  0  0  0  0  0  0  0  0
    8.1072    5.7523    0.0000 C   0  0  0  0  0  0  0  0  0  0  0  0
    6.9479    4.8005    0.0000 C   0  0  0  0  0  0  0  0  0  0  0  0
    5.7316    3.9226    0.0000 C   0  0  0  0  0  0  0  0  0  0  0  0
    4.4631    3.1220    0.0000 C   0  0  0  0  0  0  0  0  0  0  0  0
    3.1473    2.4018    0.0000 C   0  0  0  0  0  0  0  0  0  0  0  0
    1.7893    1.7648    0.0000 C   0  0  0  0  0  0  0  0  0  0  0  0
    0.3943    1.2135    0.0000 C   0  0  0  0  0  0  0  0  0  0  0  0
    1.2760    0.0000    0.0000 C   0  0  0  0  0  0  0  0  0  0  0  0
    0.3943   -1.2135    0.0000 C   0  0  0  0  0  0  0  0  0  0  0  0
   -1.0323   -0.7500    0.0000 C   0  0  0  0  0  0  0  0  0  0  0  0
   -1.0323    0.7500    0.0000 C   0  0  0  0  0  0  0  0  0  0  0  0
  1  2  1  0
  2  3  1  0
  3  4  1  0
  4  5  1  0
  5  6  1  0
  6  7  1  0
  7  8  1  0
  8  9  1  0
  9 10  1  0
 10 11  1  0
 11 12  1  0
 12 13  1  0
 13 14  1  0
 14 15  1  0
 15 16  1  0
 16 17  1  0
 17 18  1  0
 18 19  1  0
 19 20  1  0
 20 21  1  0
 21 22  1  0
 22 23  1  0
 23 24  1  0
 24 25  1  0
 25 26  1  0
 26 27  1  0
 27 28  1  0
 28 29  1  0
 29 30  1  0
 30 31  1  0
 31 32  1  0
 32 33  1  0
 33 34  1  0
 34 35  1  0
 35 36  1  0
 36 37  1  0
 37 38  1  0
 38 39  1  0
 39 40  1  0
 40 41  1  0
 41 42  1  0
 42 43  1  0
 43 44  1  0
 44 45  1  0
 45 46  1  0
 46 47  1  0
 47 48  1  0
 48 49  1  0
 49 50  1  0
 50 51  1  0
 51 52  1  0
 52 53  1  0
 53 54  1  0
 54 55  1  0
 55 56  1  0
 56 57  1  0
 57 58  1  0
 58 59  1  0
 59 60  1  0
 60 61  1  0
 61 62  1  0
 62 63  1  0
 63 64  1  0
 64 65  1  0
 65 66  1  0
 66 67  1  0
 67 68  1  0
 68 69  1  0
 69 70  1  0
 70 71  1  0
 71 72  1  0
 72 73  1  0
 73 74  1  0
 74 75  1  0
 75 76  1  0
 76 77  2  0
 77 78  1  0
 78 79  2  0
 79 80  1  0
 80 81  2  0
 81 82  1  0
 82 83  2  0
 83 84  1  0
 84 85  2  0
 85 86  1  0
 86 87  2  0
 87 88  1  0
 88 89  2  0
 89 90  1  0
 90 91  2  0
 91 92  1  0
 92 93  2  0
 93 94  1  0
 94 95  2  0
 95 96  1  0
 96 97  2  0
 97 98  1  0
 98 99  2  0
 99100  1  0
100101  2  0
101102  1  0
102103  2  0
103104  1  0
104105  2  0
105  2  1  0
105101  1  0
M  END
>  <Title>  (1246) 
idABTZgen14

$$$$

     RDKit          2D

 16 16  0  0  0  0  0  0  0  0999 V2000
    8.2500   -6.4952    0.0000 C   0  0  0  0  0  0  0  0  0  0  0  0
    7.5000   -5.1962    0.0000 C   0  0  0  0  0  0  0  0  0  0  0  0
    8.2500   -3.8971    0.0000 C   0  0  0  0  0  0  0  0  0  0  0  0
    9.7500   -3.8971    0.0000 C   0  0  0  0  0  0  0  0  0  0  0  0
    7.5000   -2.5981    0.0000 C   0  0  0  0  0  0  0  0  0  0  0  0
    6.0000   -2.5981    0.0000 C   0  0  0  0  0  0  0  0  0  0  0  0
    5.2500   -3.8971    0.0000 O   0  0  0  0  0  0  0  0  0  0  0  0
    5.2500   -1.2990    0.0000 N   0  0  0  0  0  0  0  0  0  0  0  0
    3.7500   -1.2990    0.0000 C   0  0  0  0  0  0  0  0  0  0  0  0
    3.0000    0.0000    0.0000 C   0  0  0  0  0  0  0  0  0  0  0  0
    1.5000    0.0000    0.0000 C   0  0  0  0  0  0  0  0  0  0  0  0
    0.7500   -1.2990    0.0000 C   0  0  0  0  0  0  0  0  0  0  0  0
   -0.7500   -1.2990    0.0000 C   0  0  0  0  0  0  0  0  0  0  0  0
   -1.5000    0.0000    0.0000 C   0  0  0  0  0  0  0  0  0  0  0  0
   -0.7500    1.2990    0.0000 N   0  0  0  0  0  0  0  0  0  0  0  0
    0.7500    1.2990    0.0000 C   0  0  0  0  0  0  0  0  0  0  0  0
  1  2  1  0
  2  3  1  0
  3  4  1  0
  3  5  1  0
  5  6  1  0
  6  7  2  0
  6  8  1  0
  8  9  1  0
  9 10  1  0
 10 11  1  0
 11 12  2  0
 12 13  1  0
 13 14  2  0
 14 15  1  0
 15 16  2  0
 16 11  1  0
M  END
>  <Title>  (1247) 
idABUAgen14

$$$$

     RDKit          2D

 10 10  0  0  0  0  0  0  0  0999 V2000
    5.7760   -2.5981    0.0000 C   0  0  0  0  0  0  0  0  0  0  0  0
    5.0260   -1.2990    0.0000 C   0  0  0  0  0  0  0  0  0  0  0  0
    3.5260   -1.2990    0.0000 C   0  0  0  0  0  0  0  0  0  0  0  0
    2.7760   -2.5981    0.0000 O   0  0  0  0  0  0  0  0  0  0  0  0
    2.7760    0.0000    0.0000 N   0  0  0  0  0  0  0  0  0  0  0  0
    1.2760    0.0000    0.0000 C   0  0  0  0  0  0  0  0  0  0  0  0
    0.3943    1.2135    0.0000 C   0  0  0  0  0  0  0  0  0  0  0  0
   -1.0323    0.7500    0.0000 C   0  0  0  0  0  0  0  0  0  0  0  0
   -1.0323   -0.7500    0.0000 C   0  0  0  0  0  0  0  0  0  0  0  0
    0.3943   -1.2135    0.0000 C   0  0  0  0  0  0  0  0  0  0  0  0
  1  2  1  0
  2  3  1  0
  3  4  2  0
  3  5  1  0
  5  6  1  0
  6  7  2  0
  7  8  1  0
  8  9  1  0
  9 10  2  0
 10  6  1  0
M  END
>  <Title>  (1248) 
idABUBgen14

$$$$

     RDKit          2D

113114  0  0  0  0  0  0  0  0999 V2000
    1.2644   -3.6392    0.0000 C   0  0  0  0  0  0  0  0  0  0  0  0
    1.9666   -4.0164    0.0000 C   0  0  0  0  0  0  0  0  0  0  0  0
    1.2996   -5.3599    0.0000 C   0  0  0  0  0  0  0  0  0  0  0  0
    0.7200   -6.7435    0.0000 C   0  0  0  0  0  0  0  0  0  0  0  0
    0.2303   -8.1613    0.0000 C   0  0  0  0  0  0  0  0  0  0  0  0
   -0.1676   -9.6075    0.0000 C   0  0  0  0  0  0  0  0  0  0  0  0
   -0.4720  -11.0763    0.0000 C   0  0  0  0  0  0  0  0  0  0  0  0
   -0.6817  -12.5616    0.0000 C   0  0  0  0  0  0  0  0  0  0  0  0
   -0.7958  -14.0572    0.0000 C   0  0  0  0  0  0  0  0  0  0  0  0
   -0.8138  -15.5571    0.0000 C   0  0  0  0  0  0  0  0  0  0  0  0
   -0.7357  -17.0551    0.0000 C   0  0  0  0  0  0  0  0  0  0  0  0
   -0.5618  -18.5450    0.0000 C   0  0  0  0  0  0  0  0  0  0  0  0
   -0.2928  -20.0207    0.0000 C   0  0  0  0  0  0  0  0  0  0  0  0
    0.0702  -21.4761    0.0000 C   0  0  0  0  0  0  0  0  0  0  0  0
    0.5258  -22.9052    0.0000 C   0  0  0  0  0  0  0  0  0  0  0  0
    1.0719  -24.3023    0.0000 C   0  0  0  0  0  0  0  0  0  0  0  0
    1.7064  -25.6614    0.0000 C   0  0  0  0  0  0  0  0  0  0  0  0
    2.4267  -26.9772    0.0000 C   0  0  0  0  0  0  0  0  0  0  0  0
    3.2299  -28.2441    0.0000 C   0  0  0  0  0  0  0  0  0  0  0  0
    4.1125  -29.4569    0.0000 C   0  0  0  0  0  0  0  0  0  0  0  0
    5.0711  -30.6106    0.0000 C   0  0  0  0  0  0  0  0  0  0  0  0
    6.1016  -31.7006    0.0000 C   0  0  0  0  0  0  0  0  0  0  0  0
    7.1998  -32.7224    0.0000 C   0  0  0  0  0  0  0  0  0  0  0  0
    8.3612  -33.6716    0.0000 C   0  0  0  0  0  0  0  0  0  0  0  0
    9.5810  -34.5445    0.0000 C   0  0  0  0  0  0  0  0  0  0  0  0
   10.8543  -35.3375    0.0000 C   0  0  0  0  0  0  0  0  0  0  0  0
   12.1758  -36.0472    0.0000 C   0  0  0  0  0  0  0  0  0  0  0  0
   13.5400  -36.6708    0.0000 C   0  0  0  0  0  0  0  0  0  0  0  0
   14.9414  -37.2058    0.0000 C   0  0  0  0  0  0  0  0  0  0  0  0
   16.3741  -37.6498    0.0000 C   0  0  0  0  0  0  0  0  0  0  0  0
   17.8324  -38.0012    0.0000 C   0  0  0  0  0  0  0  0  0  0  0  0
   19.3102  -38.2583    0.0000 C   0  0  0  0  0  0  0  0  0  0  0  0
   20.8014  -38.4203    0.0000 C   0  0  0  0  0  0  0  0  0  0  0  0
   22.3000  -38.4864    0.0000 C   0  0  0  0  0  0  0  0  0  0  0  0
   23.7997  -38.4564    0.0000 C   0  0  0  0  0  0  0  0  0  0  0  0
   25.2944  -38.3303    0.0000 C   0  0  0  0  0  0  0  0  0  0  0  0
   26.7779  -38.1087    0.0000 C   0  0  0  0  0  0  0  0  0  0  0  0
   28.2442  -37.7925    0.0000 C   0  0  0  0  0  0  0  0  0  0  0  0
   29.6872  -37.3831    0.0000 C   0  0  0  0  0  0  0  0  0  0  0  0
   31.1011  -36.8820    0.0000 C   0  0  0  0  0  0  0  0  0  0  0  0
   32.4799  -36.2913    0.0000 C   0  0  0  0  0  0  0  0  0  0  0  0
   33.8180  -35.6136    0.0000 C   0  0  0  0  0  0  0  0  0  0  0  0
   35.1100  -34.8514    0.0000 C   0  0  0  0  0  0  0  0  0  0  0  0
   36.3505  -34.0081    0.0000 C   0  0  0  0  0  0  0  0  0  0  0  0
   37.5344  -33.0870    0.0000 C   0  0  0  0  0  0  0  0  0  0  0  0
   38.6569  -32.0920    0.0000 C   0  0  0  0  0  0  0  0  0  0  0  0
   39.7133  -31.0271    0.0000 C   0  0  0  0  0  0  0  0  0  0  0  0
   40.6993  -29.8967    0.0000 C   0  0  0  0  0  0  0  0  0  0  0  0
   41.6108  -28.7055    0.0000 C   0  0  0  0  0  0  0  0  0  0  0  0
   42.4442  -27.4583    0.0000 C   0  0  0  0  0  0  0  0  0  0  0  0
   43.1959  -26.1602    0.0000 C   0  0  0  0  0  0  0  0  0  0  0  0
   43.8629  -24.8167    0.0000 C   0  0  0  0  0  0  0  0  0  0  0  0
   44.4425  -23.4332    0.0000 C   0  0  0  0  0  0  0  0  0  0  0  0
   44.9322  -22.0154    0.0000 C   0  0  0  0  0  0  0  0  0  0  0  0
   45.3301  -20.5691    0.0000 C   0  0  0  0  0  0  0  0  0  0  0  0
   45.6346  -19.1003    0.0000 C   0  0  0  0  0  0  0  0  0  0  0  0
   45.8442  -17.6151    0.0000 C   0  0  0  0  0  0  0  0  0  0  0  0
   45.9583  -16.1194    0.0000 C   0  0  0  0  0  0  0  0  0  0  0  0
   45.9764  -14.6195    0.0000 C   0  0  0  0  0  0  0  0  0  0  0  0
   45.8983  -13.1216    0.0000 C   0  0  0  0  0  0  0  0  0  0  0  0
   45.7243  -11.6317    0.0000 C   0  0  0  0  0  0  0  0  0  0  0  0
   45.4553  -10.1560    0.0000 C   0  0  0  0  0  0  0  0  0  0  0  0
   45.0923   -8.7006    0.0000 C   0  0  0  0  0  0  0  0  0  0  0  0
   44.6368   -7.2714    0.0000 C   0  0  0  0  0  0  0  0  0  0  0  0
   44.0906   -5.8744    0.0000 C   0  0  0  0  0  0  0  0  0  0  0  0
   43.4561   -4.5152    0.0000 C   0  0  0  0  0  0  0  0  0  0  0  0
   42.7358   -3.1995    0.0000 C   0  0  0  0  0  0  0  0  0  0  0  0
   41.9327   -1.9326    0.0000 C   0  0  0  0  0  0  0  0  0  0  0  0
   41.0500   -0.7198    0.0000 C   0  0  0  0  0  0  0  0  0  0  0  0
   40.0915    0.4340    0.0000 C   0  0  0  0  0  0  0  0  0  0  0  0
   39.0610    1.5240    0.0000 C   0  0  0  0  0  0  0  0  0  0  0  0
   37.9628    2.5457    0.0000 C   0  0  0  0  0  0  0  0  0  0  0  0
   36.8014    3.4950    0.0000 C   0  0  0  0  0  0  0  0  0  0  0  0
   35.5815    4.3679    0.0000 C   0  0  0  0  0  0  0  0  0  0  0  0
   34.3082    5.1608    0.0000 C   0  0  0  0  0  0  0  0  0  0  0  0
   32.9868    5.8706    0.0000 C   0  0  0  0  0  0  0  0  0  0  0  0
   31.6225    6.4942    0.0000 C   0  0  0  0  0  0  0  0  0  0  0  0
   30.2212    7.0291    0.0000 C   0  0  0  0  0  0  0  0  0  0  0  0
   28.7884    7.4732    0.0000 C   0  0  0  0  0  0  0  0  0  0  0  0
   27.3301    7.8245    0.0000 C   0  0  0  0  0  0  0  0  0  0  0  0
   25.8523    8.0817    0.0000 C   0  0  0  0  0  0  0  0  0  0  0  0
   24.3611    8.2437    0.0000 C   0  0  0  0  0  0  0  0  0  0  0  0
   22.8626    8.3098    0.0000 C   0  0  0  0  0  0  0  0  0  0  0  0
   21.3629    8.2797    0.0000 C   0  0  0  0  0  0  0  0  0  0  0  0
   19.8682    8.1536    0.0000 C   0  0  0  0  0  0  0  0  0  0  0  0
   18.3846    7.9321    0.0000 C   0  0  0  0  0  0  0  0  0  0  0  0
   16.9183    7.6159    0.0000 C   0  0  0  0  0  0  0  0  0  0  0  0
   15.4753    7.2064    0.0000 C   0  0  0  0  0  0  0  0  0  0  0  0
   14.0615    6.7053    0.0000 C   0  0  0  0  0  0  0  0  0  0  0  0
   12.6827    6.1147    0.0000 C   0  0  0  0  0  0  0  0  0  0  0  0
   11.3445    5.4369    0.0000 C   0  0  0  0  0  0  0  0  0  0  0  0
   10.0525    4.6748    0.0000 C   0  0  0  0  0  0  0  0  0  0  0  0
    8.8121    3.8315    0.0000 C   0  0  0  0  0  0  0  0  0  0  0  0
    7.6282    2.9104    0.0000 C   0  0  0  0  0  0  0  0  0  0  0  0
    6.5057    1.9154    0.0000 C   0  0  0  0  0  0  0  0  0  0  0  0
    5.4493    0.8505    0.0000 C   0  0  0  0  0  0  0  0  0  0  0  0
    4.4633   -0.2799    0.0000 C   0  0  0  0  0  0  0  0  0  0  0  0
    3.5517   -1.4712    0.0000 C   0  0  0  0  0  0  0  0  0  0  0  0
    3.1444   -0.0000    0.0000 C   0  0  0  0  0  0  0  0  0  0  0  0
    2.9050    1.2033    0.0000 C   0  0  0  0  0  0  0  0  0  0  0  0
    2.2234    2.2234    0.0000 C   0  0  0  0  0  0  0  0  0  0  0  0
    1.2033    2.9050    0.0000 C   0  0  0  0  0  0  0  0  0  0  0  0
    0.0000    3.1444    0.0000 C   0  0  0  0  0  0  0  0  0  0  0  0
   -1.2033    2.9050    0.0000 C   0  0  0  0  0  0  0  0  0  0  0  0
   -2.2234    2.2234    0.0000 C   0  0  0  0  0  0  0  0  0  0  0  0
   -2.9050    1.2033    0.0000 C   0  0  0  0  0  0  0  0  0  0  0  0
   -3.1444    0.0000    0.0000 C   0  0  0  0  0  0  0  0  0  0  0  0
   -2.9050   -1.2033    0.0000 C   0  0  0  0  0  0  0  0  0  0  0  0
   -2.2234   -2.2234    0.0000 C   0  0  0  0  0  0  0  0  0  0  0  0
   -1.2033   -2.9050    0.0000 C   0  0  0  0  0  0  0  0  0  0  0  0
   -0.0000   -3.1444    0.0000 C   0  0  0  0  0  0  0  0  0  0  0  0
    1.2033   -2.9050    0.0000 C   0  0  0  0  0  0  0  0  0  0  0  0
    2.7184   -2.7184    0.0000 C   0  0  0  0  0  0  0  0  0  0  0  0
  1  2  1  0
  2  3  1  0
  3  4  1  0
  4  5  1  0
  5  6  1  0
  6  7  1  0
  7  8  1  0
  8  9  1  0
  9 10  1  0
 10 11  1  0
 11 12  1  0
 12 13  1  0
 13 14  1  0
 14 15  1  0
 15 16  1  0
 16 17  1  0
 17 18  1  0
 18 19  1  0
 19 20  1  0
 20 21  1  0
 21 22  1  0
 22 23  1  0
 23 24  1  0
 24 25  1  0
 25 26  1  0
 26 27  1  0
 27 28  1  0
 28 29  1  0
 29 30  1  0
 30 31  1  0
 31 32  1  0
 32 33  1  0
 33 34  1  0
 34 35  1  0
 35 36  1  0
 36 37  1  0
 37 38  1  0
 38 39  1  0
 39 40  1  0
 40 41  1  0
 41 42  1  0
 42 43  1  0
 43 44  1  0
 44 45  1  0
 45 46  1  0
 46 47  1  0
 47 48  1  0
 48 49  1  0
 49 50  1  0
 50 51  1  0
 51 52  1  0
 52 53  1  0
 53 54  1  0
 54 55  1  0
 55 56  1  0
 56 57  1  0
 57 58  1  0
 58 59  1  0
 59 60  1  0
 60 61  1  0
 61 62  1  0
 62 63  1  0
 63 64  1  0
 64 65  1  0
 65 66  1  0
 66 67  1  0
 67 68  1  0
 68 69  1  0
 69 70  1  0
 70 71  1  0
 71 72  1  0
 72 73  1  0
 73 74  1  0
 74 75  1  0
 75 76  1  0
 76 77  1  0
 77 78  1  0
 78 79  1  0
 79 80  1  0
 80 81  1  0
 81 82  1  0
 82 83  1  0
 83 84  1  0
 84 85  1  0
 85 86  1  0
 86 87  1  0
 87 88  1  0
 88 89  1  0
 89 90  1  0
 90 91  1  0
 91 92  1  0
 92 93  1  0
 93 94  1  0
 94 95  1  0
 95 96  1  0
 96 97  1  0
 97 98  1  0
 98 99  1  0
 99100  1  0
100101  2  0
101102  1  0
102103  2  0
103104  1  0
104105  2  0
105106  1  0
106107  2  0
107108  1  0
108109  2  0
109110  1  0
110111  2  0
111112  1  0
112113  2  0
113  2  1  0
113 98  1  0
M  END
>  <Title>  (1249) 
idABUCgen14

$$$$

     RDKit          2D

 34 38  0  0  0  0  0  0  0  0999 V2000
   -3.0000   -2.5981    0.0000 C   0  0  0  0  0  0  0  0  0  0  0  0
   -1.5000   -2.5981    0.0000 C   0  0  0  0  0  0  0  0  0  0  0  0
   -0.7500   -3.8971    0.0000 C   0  0  0  0  0  0  0  0  0  0  0  0
    0.7500   -3.8971    0.0000 S   0  0  0  0  0  4  0  0  0  0  0  0
    1.5000   -2.5981    0.0000 C   0  0  0  0  0  0  0  0  0  0  0  0
    3.0000   -2.5981    0.0000 C   0  0  0  0  0  0  0  0  0  0  0  0
    3.7500   -1.2990    0.0000 O   0  0  0  0  0  0  0  0  0  0  0  0
    3.7500   -3.8971    0.0000 N   0  0  0  0  0  0  0  0  0  0  0  0
    5.2500   -3.8971    0.0000 C   0  0  0  0  0  0  0  0  0  0  0  0
    6.1317   -2.6836    0.0000 N   0  0  0  0  0  0  0  0  0  0  0  0
    7.5583   -3.1471    0.0000 N   0  0  0  0  0  0  0  0  0  0  0  0
    7.5583   -4.6471    0.0000 N   0  0  0  0  0  0  0  0  0  0  0  0
    6.1317   -5.1106    0.0000 N   0  0  0  0  0  0  0  0  0  0  0  0
    5.6682   -6.5372    0.0000 C   0  0  0  0  0  0  0  0  0  0  0  0
    6.5498   -7.7508    0.0000 C   0  0  0  0  0  0  0  0  0  0  0  0
    5.6682   -8.9643    0.0000 C   0  0  0  0  0  0  0  0  0  0  0  0
    4.2416   -8.5008    0.0000 C   0  0  0  0  0  0  0  0  0  0  0  0
    3.0280   -9.3824    0.0000 C   0  0  0  0  0  0  0  0  0  0  0  0
    3.1848  -10.8742    0.0000 O   0  0  0  0  0  0  0  0  0  0  0  0
    1.6577   -8.7723    0.0000 N   0  0  0  0  0  0  0  0  0  0  0  0
    0.4442   -9.6540    0.0000 C   0  0  0  0  0  0  0  0  0  0  0  0
   -0.9261   -9.0439    0.0000 N   0  0  0  0  0  0  0  0  0  0  0  0
   -2.1396   -9.9256    0.0000 N   0  0  0  0  0  0  0  0  0  0  0  0
   -1.9829  -11.4174    0.0000 N   0  0  0  0  0  0  0  0  0  0  0  0
   -0.6125  -12.0275    0.0000 N   0  0  0  0  0  0  0  0  0  0  0  0
    0.6010  -11.1458    0.0000 N   0  0  0  0  0  0  0  0  0  0  0  0
    4.2416   -7.0008    0.0000 C   0  0  0  0  0  0  0  0  0  0  0  0
    3.0280   -6.1191    0.0000 O   0  0  0  0  0  0  0  0  0  0  0  0
    0.7500   -1.2990    0.0000 C   0  0  0  0  0  0  0  0  0  0  0  0
    1.5000    0.0000    0.0000 C   0  0  0  0  0  0  0  0  0  0  0  0
    0.7500    1.2990    0.0000 C   0  0  0  0  0  0  0  0  0  0  0  0
   -0.7500    1.2990    0.0000 C   0  0  0  0  0  0  0  0  0  0  0  0
   -1.5000    0.0000    0.0000 C   0  0  0  0  0  0  0  0  0  0  0  0
   -0.7500   -1.2990    0.0000 C   0  0  0  0  0  0  0  0  0  0  0  0
  1  2  1  0
  2  3  2  0
  3  4  1  0
  4  5  2  0
  5  6  1  0
  6  7  2  0
  6  8  1  0
  8  9  1  0
  9 10  2  0
 10 11  1  0
 11 12  2  0
 12 13  1  0
 13 14  1  0
 14 15  2  0
 15 16  1  0
 16 17  2  0
 17 18  1  0
 18 19  2  0
 18 20  1  0
 20 21  1  0
 21 22  2  0
 22 23  1  0
 23 24  2  0
 24 25  1  0
 25 26  2  0
 17 27  1  0
 27 28  2  0
  5 29  1  0
 29 30  2  0
 30 31  1  0
 31 32  2  0
 32 33  1  0
 33 34  2  0
 34  2  1  0
 13  9  1  0
 27 14  1  0
 34 29  1  0
 26 21  1  0
M  END
>  <Title>  (1250) 
idABUDgen14

$$$$

     RDKit          2D

 36 40  0  0  0  0  0  0  0  0999 V2000
   -3.1476   -2.1380    0.0000 C   0  0  0  0  0  0  0  0  0  0  0  0
   -1.6852   -2.4718    0.0000 C   0  0  0  0  0  0  0  0  0  0  0  0
   -1.3515   -3.9342    0.0000 C   0  0  0  0  0  0  0  0  0  0  0  0
   -0.0000   -4.5850    0.0000 C   0  0  0  0  0  0  0  0  0  0  0  0
    1.3515   -3.9342    0.0000 C   0  0  0  0  0  0  0  0  0  0  0  0
    1.6852   -2.4718    0.0000 C   0  0  0  0  0  0  0  0  0  0  0  0
    3.1476   -2.1380    0.0000 C   0  0  0  0  0  0  0  0  0  0  0  0
    3.5898   -0.7046    0.0000 O   0  0  0  0  0  0  0  0  0  0  0  0
    4.1679   -3.2376    0.0000 N   0  0  0  0  0  0  0  0  0  0  0  0
    5.6303   -2.9038    0.0000 C   0  0  0  0  0  0  0  0  0  0  0  0
    6.2198   -1.5245    0.0000 N   0  0  0  0  0  0  0  0  0  0  0  0
    7.7138   -1.6590    0.0000 N   0  0  0  0  0  0  0  0  0  0  0  0
    8.0476   -3.1214    0.0000 N   0  0  0  0  0  0  0  0  0  0  0  0
    6.7599   -3.8907    0.0000 N   0  0  0  0  0  0  0  0  0  0  0  0
    6.6254   -5.3847    0.0000 N   0  0  0  0  0  0  0  0  0  0  0  0
    7.7550   -6.3716    0.0000 C   0  0  0  0  0  0  0  0  0  0  0  0
    7.1655   -7.7509    0.0000 C   0  0  0  0  0  0  0  0  0  0  0  0
    5.6715   -7.6164    0.0000 C   0  0  0  0  0  0  0  0  0  0  0  0
    4.6846   -8.7460    0.0000 C   0  0  0  0  0  0  0  0  0  0  0  0
    5.1694  -10.1655    0.0000 O   0  0  0  0  0  0  0  0  0  0  0  0
    3.2129   -8.4561    0.0000 N   0  0  0  0  0  0  0  0  0  0  0  0
    2.2260   -9.5857    0.0000 C   0  0  0  0  0  0  0  0  0  0  0  0
    0.7543   -9.2959    0.0000 N   0  0  0  0  0  0  0  0  0  0  0  0
   -0.2326  -10.4255    0.0000 N   0  0  0  0  0  0  0  0  0  0  0  0
    0.2522  -11.8450    0.0000 N   0  0  0  0  0  0  0  0  0  0  0  0
    1.7239  -12.1348    0.0000 N   0  0  0  0  0  0  0  0  0  0  0  0
    2.7108  -11.0052    0.0000 N   0  0  0  0  0  0  0  0  0  0  0  0
    5.3378   -6.1540    0.0000 C   0  0  0  0  0  0  0  0  0  0  0  0
    3.9585   -5.5645    0.0000 O   0  0  0  0  0  0  0  0  0  0  0  0
    0.7500   -1.2990    0.0000 C   0  0  0  0  0  0  0  0  0  0  0  0
    1.5000    0.0000    0.0000 C   0  0  0  0  0  0  0  0  0  0  0  0
    0.7500    1.2990    0.0000 C   0  0  0  0  0  0  0  0  0  0  0  0
   -0.7500    1.2990    0.0000 C   0  0  0  0  0  0  0  0  0  0  0  0
   -1.5000    2.5981    0.0000 O   0  0  0  0  0  0  0  0  0  0  0  0
   -1.5000    0.0000    0.0000 C   0  0  0  0  0  0  0  0  0  0  0  0
   -0.7500   -1.2990    0.0000 C   0  0  0  0  0  0  0  0  0  0  0  0
  1  2  1  0
  2  3  1  0
  3  4  1  0
  4  5  1  0
  5  6  1  0
  6  7  1  0
  7  8  2  0
  7  9  1  0
  9 10  1  0
 10 11  2  0
 11 12  1  0
 12 13  2  0
 13 14  1  0
 14 15  1  0
 15 16  1  0
 16 17  1  0
 17 18  1  0
 18 19  1  0
 19 20  2  0
 19 21  1  0
 21 22  1  0
 22 23  2  0
 23 24  1  0
 24 25  2  0
 25 26  1  0
 26 27  2  0
 18 28  1  0
 28 29  2  0
  6 30  1  0
 30 31  2  0
 31 32  1  0
 32 33  2  0
 33 34  1  0
 33 35  1  0
 35 36  2  0
 36  2  1  0
 14 10  1  0
 28 15  1  0
 36 30  1  0
 27 22  1  0
M  END
>  <Title>  (1251) 
idABUEgen14

$$$$

     RDKit          2D

 36 40  0  0  0  0  0  0  0  0999 V2000
   -4.6100   -1.8042    0.0000 N   0  0  0  0  0  0  0  0  0  0  0  0
   -3.1476   -2.1380    0.0000 C   0  0  0  0  0  0  0  0  0  0  0  0
   -1.6852   -2.4718    0.0000 C   0  0  0  0  0  0  0  0  0  0  0  0
   -1.3515   -3.9342    0.0000 C   0  0  0  0  0  0  0  0  0  0  0  0
   -0.0000   -4.5850    0.0000 C   0  0  0  0  0  0  0  0  0  0  0  0
    1.3515   -3.9342    0.0000 C   0  0  0  0  0  0  0  0  0  0  0  0
    1.6852   -2.4718    0.0000 C   0  0  0  0  0  0  0  0  0  0  0  0
    3.1476   -2.1380    0.0000 C   0  0  0  0  0  0  0  0  0  0  0  0
    3.5898   -0.7046    0.0000 O   0  0  0  0  0  0  0  0  0  0  0  0
    4.1679   -3.2376    0.0000 N   0  0  0  0  0  0  0  0  0  0  0  0
    5.6303   -2.9038    0.0000 C   0  0  0  0  0  0  0  0  0  0  0  0
    6.2198   -1.5245    0.0000 N   0  0  0  0  0  0  0  0  0  0  0  0
    7.7138   -1.6590    0.0000 N   0  0  0  0  0  0  0  0  0  0  0  0
    8.0476   -3.1214    0.0000 N   0  0  0  0  0  0  0  0  0  0  0  0
    6.7599   -3.8907    0.0000 N   0  0  0  0  0  0  0  0  0  0  0  0
    6.6254   -5.3847    0.0000 N   0  0  0  0  0  0  0  0  0  0  0  0
    7.7550   -6.3716    0.0000 C   0  0  0  0  0  0  0  0  0  0  0  0
    7.1655   -7.7509    0.0000 C   0  0  0  0  0  0  0  0  0  0  0  0
    5.6715   -7.6164    0.0000 N   0  0  0  0  0  0  0  0  0  0  0  0
    4.6846   -8.7460    0.0000 C   0  0  0  0  0  0  0  0  0  0  0  0
    5.1694  -10.1655    0.0000 O   0  0  0  0  0  0  0  0  0  0  0  0
    3.2129   -8.4561    0.0000 N   0  0  0  0  0  0  0  0  0  0  0  0
    2.2260   -9.5857    0.0000 C   0  0  0  0  0  0  0  0  0  0  0  0
    0.7543   -9.2959    0.0000 N   0  0  0  0  0  0  0  0  0  0  0  0
   -0.2326  -10.4255    0.0000 N   0  0  0  0  0  0  0  0  0  0  0  0
    0.2522  -11.8450    0.0000 N   0  0  0  0  0  0  0  0  0  0  0  0
    1.7239  -12.1348    0.0000 N   0  0  0  0  0  0  0  0  0  0  0  0
    2.7108  -11.0052    0.0000 N   0  0  0  0  0  0  0  0  0  0  0  0
    5.3378   -6.1540    0.0000 C   0  0  0  0  0  0  0  0  0  0  0  0
    3.9585   -5.5645    0.0000 O   0  0  0  0  0  0  0  0  0  0  0  0
    0.7500   -1.2990    0.0000 C   0  0  0  0  0  0  0  0  0  0  0  0
    1.5000    0.0000    0.0000 C   0  0  0  0  0  0  0  0  0  0  0  0
    0.7500    1.2990    0.0000 C   0  0  0  0  0  0  0  0  0  0  0  0
   -0.7500    1.2990    0.0000 C   0  0  0  0  0  0  0  0  0  0  0  0
   -1.5000    0.0000    0.0000 C   0  0  0  0  0  0  0  0  0  0  0  0
   -0.7500   -1.2990    0.0000 C   0  0  0  0  0  0  0  0  0  0  0  0
  1  2  3  0
  2  3  1  0
  3  4  1  0
  4  5  2  0
  5  6  1  0
  6  7  1  0
  7  8  1  0
  8  9  2  0
  8 10  1  0
 10 11  1  0
 11 12  2  0
 12 13  1  0
 13 14  2  0
 14 15  1  0
 15 16  1  0
 16 17  1  0
 17 18  1  0
 18 19  1  0
 19 20  1  0
 20 21  2  0
 20 22  1  0
 22 23  1  0
 23 24  2  0
 24 25  1  0
 25 26  2  0
 26 27  1  0
 27 28  2  0
 19 29  1  0
 29 30  2  0
  7 31  1  0
 31 32  2  0
 32 33  1  0
 33 34  2  0
 34 35  1  0
 35 36  2  0
 36  3  1  0
 15 11  1  0
 29 16  1  0
 36 31  1  0
 28 23  1  0
M  END
>  <Title>  (1252) 
idABUFgen14

$$$$

     RDKit          2D

 21 21  0  0  0  0  0  0  0  0999 V2000
    7.5000   -2.5981    0.0000 C   0  0  0  0  0  0  0  0  0  0  0  0
    6.0000   -2.5981    0.0000 C   0  0  0  0  0  0  0  0  0  0  0  0
    5.2500   -1.2990    0.0000 C   0  0  0  0  0  0  0  0  0  0  0  0
    3.7500   -1.2990    0.0000 C   0  0  0  0  0  0  0  0  0  0  0  0
    3.0000    0.0000    0.0000 C   0  0  0  0  0  0  0  0  0  0  0  0
    3.7500    1.2990    0.0000 N   0  0  0  0  0  0  0  0  0  0  0  0
    5.2500    1.2990    0.0000 C   0  0  0  0  0  0  0  0  0  0  0  0
    6.0000    0.0000    0.0000 O   0  0  0  0  0  0  0  0  0  0  0  0
    6.0000    2.5981    0.0000 N   0  0  0  0  0  0  0  0  0  0  0  0
    7.5000    2.5981    0.0000 C   0  0  0  0  0  0  0  0  0  0  0  0
    8.2500    3.8971    0.0000 C   0  0  0  0  0  0  0  0  0  0  0  0
    9.7500    3.8971    0.0000 N   0  0  0  0  0  0  0  0  0  0  0  0
   10.5000    5.1962    0.0000 N   0  0  0  0  0  0  0  0  0  0  0  0
   12.0000    5.1962    0.0000 N   0  0  0  0  0  0  0  0  0  0  0  0
   12.7500    6.4952    0.0000 N   0  0  0  0  0  0  0  0  0  0  0  0
    1.5000    0.0000    0.0000 C   0  0  0  0  0  0  0  0  0  0  0  0
    0.7500   -1.2990    0.0000 C   0  0  0  0  0  0  0  0  0  0  0  0
   -0.7500   -1.2990    0.0000 C   0  0  0  0  0  0  0  0  0  0  0  0
   -1.5000    0.0000    0.0000 C   0  0  0  0  0  0  0  0  0  0  0  0
   -0.7500    1.2990    0.0000 C   0  0  0  0  0  0  0  0  0  0  0  0
    0.7500    1.2990    0.0000 C   0  0  0  0  0  0  0  0  0  0  0  0
  1  2  2  0
  2  3  1  0
  3  4  1  0
  4  5  1  0
  5  6  1  0
  6  7  1  0
  7  8  2  0
  7  9  1  0
  9 10  1  0
 10 11  1  0
 11 12  2  3
 12 13  1  0
 13 14  2  3
 14 15  1  0
  5 16  1  0
 16 17  2  0
 17 18  1  0
 18 19  2  0
 19 20  1  0
 20 21  2  0
 21 16  1  0
M  END
>  <Title>  (1253) 
idABUGgen14

$$$$

     RDKit          2D

 10 10  0  0  0  0  0  0  0  0999 V2000
    6.0000   -2.5981    0.0000 C   0  0  0  0  0  0  0  0  0  0  0  0
    5.2500   -1.2990    0.0000 C   0  0  0  0  0  0  0  0  0  0  0  0
    3.7500   -1.2990    0.0000 C   0  0  0  0  0  0  0  0  0  0  0  0
    3.0000    0.0000    0.0000 C   0  0  0  0  0  0  0  0  0  0  0  0
    1.5000    0.0000    0.0000 C   0  0  0  0  0  0  0  0  0  0  0  0
    0.7500   -1.2990    0.0000 C   0  0  0  0  0  0  0  0  0  0  0  0
   -0.7500   -1.2990    0.0000 C   0  0  0  0  0  0  0  0  0  0  0  0
   -1.5000    0.0000    0.0000 C   0  0  0  0  0  0  0  0  0  0  0  0
   -0.7500    1.2990    0.0000 N   0  0  0  0  0  0  0  0  0  0  0  0
    0.7500    1.2990    0.0000 C   0  0  0  0  0  0  0  0  0  0  0  0
  1  2  2  0
  2  3  1  0
  3  4  1  0
  4  5  1  0
  5  6  2  0
  6  7  1  0
  7  8  2  0
  8  9  1  0
  9 10  2  0
 10  5  1  0
M  END
>  <Title>  (1254) 
idABUHgen14

$$$$

     RDKit          2D

104105  0  0  0  0  0  0  0  0999 V2000
   -2.1579   -1.0869    0.0000 C   0  0  0  0  0  0  0  0  0  0  0  0
   -2.4852    0.3770    0.0000 C   0  0  0  0  0  0  0  0  0  0  0  0
   -3.9586    0.0959    0.0000 C   0  0  0  0  0  0  0  0  0  0  0  0
   -5.4468   -0.0921    0.0000 C   0  0  0  0  0  0  0  0  0  0  0  0
   -6.9438   -0.1863    0.0000 C   0  0  0  0  0  0  0  0  0  0  0  0
   -8.4438   -0.1863    0.0000 C   0  0  0  0  0  0  0  0  0  0  0  0
   -9.9408   -0.0921    0.0000 C   0  0  0  0  0  0  0  0  0  0  0  0
  -11.4290    0.0959    0.0000 C   0  0  0  0  0  0  0  0  0  0  0  0
  -12.9024    0.3770    0.0000 C   0  0  0  0  0  0  0  0  0  0  0  0
  -14.3553    0.7500    0.0000 C   0  0  0  0  0  0  0  0  0  0  0  0
  -15.7819    1.2135    0.0000 C   0  0  0  0  0  0  0  0  0  0  0  0
  -17.1766    1.7657    0.0000 C   0  0  0  0  0  0  0  0  0  0  0  0
  -18.5338    2.4044    0.0000 C   0  0  0  0  0  0  0  0  0  0  0  0
  -19.8483    3.1270    0.0000 C   0  0  0  0  0  0  0  0  0  0  0  0
  -21.1148    3.9308    0.0000 C   0  0  0  0  0  0  0  0  0  0  0  0
  -22.3283    4.8124    0.0000 C   0  0  0  0  0  0  0  0  0  0  0  0
  -23.4841    5.7686    0.0000 C   0  0  0  0  0  0  0  0  0  0  0  0
  -24.5775    6.7954    0.0000 C   0  0  0  0  0  0  0  0  0  0  0  0
  -25.6043    7.8888    0.0000 C   0  0  0  0  0  0  0  0  0  0  0  0
  -26.5605    9.0446    0.0000 C   0  0  0  0  0  0  0  0  0  0  0  0
  -27.4421   10.2581    0.0000 C   0  0  0  0  0  0  0  0  0  0  0  0
  -28.2459   11.5246    0.0000 C   0  0  0  0  0  0  0  0  0  0  0  0
  -28.9685   12.8391    0.0000 C   0  0  0  0  0  0  0  0  0  0  0  0
  -29.6072   14.1963    0.0000 C   0  0  0  0  0  0  0  0  0  0  0  0
  -30.1594   15.5910    0.0000 C   0  0  0  0  0  0  0  0  0  0  0  0
  -30.6229   17.0176    0.0000 C   0  0  0  0  0  0  0  0  0  0  0  0
  -30.9959   18.4705    0.0000 C   0  0  0  0  0  0  0  0  0  0  0  0
  -31.2770   19.9439    0.0000 C   0  0  0  0  0  0  0  0  0  0  0  0
  -31.4650   21.4321    0.0000 C   0  0  0  0  0  0  0  0  0  0  0  0
  -31.5592   22.9291    0.0000 C   0  0  0  0  0  0  0  0  0  0  0  0
  -31.5592   24.4291    0.0000 C   0  0  0  0  0  0  0  0  0  0  0  0
  -31.4650   25.9261    0.0000 C   0  0  0  0  0  0  0  0  0  0  0  0
  -31.2770   27.4143    0.0000 C   0  0  0  0  0  0  0  0  0  0  0  0
  -30.9959   28.8877    0.0000 C   0  0  0  0  0  0  0  0  0  0  0  0
  -30.6229   30.3406    0.0000 C   0  0  0  0  0  0  0  0  0  0  0  0
  -30.1594   31.7672    0.0000 C   0  0  0  0  0  0  0  0  0  0  0  0
  -29.6072   33.1619    0.0000 C   0  0  0  0  0  0  0  0  0  0  0  0
  -28.9685   34.5191    0.0000 C   0  0  0  0  0  0  0  0  0  0  0  0
  -28.2459   35.8336    0.0000 C   0  0  0  0  0  0  0  0  0  0  0  0
  -27.4421   37.1001    0.0000 C   0  0  0  0  0  0  0  0  0  0  0  0
  -26.5605   38.3136    0.0000 C   0  0  0  0  0  0  0  0  0  0  0  0
  -25.6043   39.4693    0.0000 C   0  0  0  0  0  0  0  0  0  0  0  0
  -24.5775   40.5628    0.0000 C   0  0  0  0  0  0  0  0  0  0  0  0
  -23.4841   41.5896    0.0000 C   0  0  0  0  0  0  0  0  0  0  0  0
  -22.3283   42.5458    0.0000 C   0  0  0  0  0  0  0  0  0  0  0  0
  -21.1148   43.4274    0.0000 C   0  0  0  0  0  0  0  0  0  0  0  0
  -19.8483   44.2312    0.0000 C   0  0  0  0  0  0  0  0  0  0  0  0
  -18.5338   44.9538    0.0000 C   0  0  0  0  0  0  0  0  0  0  0  0
  -17.1766   45.5925    0.0000 C   0  0  0  0  0  0  0  0  0  0  0  0
  -15.7819   46.1447    0.0000 C   0  0  0  0  0  0  0  0  0  0  0  0
  -14.3553   46.6082    0.0000 C   0  0  0  0  0  0  0  0  0  0  0  0
  -12.9024   46.9812    0.0000 C   0  0  0  0  0  0  0  0  0  0  0  0
  -11.4290   47.2623    0.0000 C   0  0  0  0  0  0  0  0  0  0  0  0
   -9.9408   47.4503    0.0000 C   0  0  0  0  0  0  0  0  0  0  0  0
   -8.4438   47.5445    0.0000 C   0  0  0  0  0  0  0  0  0  0  0  0
   -6.9438   47.5445    0.0000 C   0  0  0  0  0  0  0  0  0  0  0  0
   -5.4468   47.4503    0.0000 C   0  0  0  0  0  0  0  0  0  0  0  0
   -3.9586   47.2623    0.0000 C   0  0  0  0  0  0  0  0  0  0  0  0
   -2.4852   46.9812    0.0000 C   0  0  0  0  0  0  0  0  0  0  0  0
   -1.0323   46.6082    0.0000 C   0  0  0  0  0  0  0  0  0  0  0  0
    0.3943   46.1447    0.0000 C   0  0  0  0  0  0  0  0  0  0  0  0
    1.7890   45.5925    0.0000 C   0  0  0  0  0  0  0  0  0  0  0  0
    3.1462   44.9538    0.0000 C   0  0  0  0  0  0  0  0  0  0  0  0
    4.4607   44.2312    0.0000 C   0  0  0  0  0  0  0  0  0  0  0  0
    5.7272   43.4274    0.0000 C   0  0  0  0  0  0  0  0  0  0  0  0
    6.9407   42.5458    0.0000 C   0  0  0  0  0  0  0  0  0  0  0  0
    8.0965   41.5896    0.0000 C   0  0  0  0  0  0  0  0  0  0  0  0
    9.1899   40.5628    0.0000 C   0  0  0  0  0  0  0  0  0  0  0  0
   10.2167   39.4693    0.0000 C   0  0  0  0  0  0  0  0  0  0  0  0
   11.1729   38.3136    0.0000 C   0  0  0  0  0  0  0  0  0  0  0  0
   12.0545   37.1001    0.0000 C   0  0  0  0  0  0  0  0  0  0  0  0
   12.8583   35.8336    0.0000 C   0  0  0  0  0  0  0  0  0  0  0  0
   13.5809   34.5191    0.0000 C   0  0  0  0  0  0  0  0  0  0  0  0
   14.2196   33.1619    0.0000 C   0  0  0  0  0  0  0  0  0  0  0  0
   14.7718   31.7672    0.0000 C   0  0  0  0  0  0  0  0  0  0  0  0
   15.2353   30.3406    0.0000 C   0  0  0  0  0  0  0  0  0  0  0  0
   15.6083   28.8877    0.0000 C   0  0  0  0  0  0  0  0  0  0  0  0
   15.8894   27.4143    0.0000 C   0  0  0  0  0  0  0  0  0  0  0  0
   16.0774   25.9261    0.0000 C   0  0  0  0  0  0  0  0  0  0  0  0
   16.1716   24.4291    0.0000 C   0  0  0  0  0  0  0  0  0  0  0  0
   16.1716   22.9291    0.0000 C   0  0  0  0  0  0  0  0  0  0  0  0
   16.0774   21.4321    0.0000 C   0  0  0  0  0  0  0  0  0  0  0  0
   15.8894   19.9439    0.0000 C   0  0  0  0  0  0  0  0  0  0  0  0
   15.6083   18.4705    0.0000 C   0  0  0  0  0  0  0  0  0  0  0  0
   15.2353   17.0176    0.0000 C   0  0  0  0  0  0  0  0  0  0  0  0
   14.7718   15.5910    0.0000 C   0  0  0  0  0  0  0  0  0  0  0  0
   14.2196   14.1963    0.0000 C   0  0  0  0  0  0  0  0  0  0  0  0
   13.5809   12.8391    0.0000 C   0  0  0  0  0  0  0  0  0  0  0  0
   12.8583   11.5246    0.0000 C   0  0  0  0  0  0  0  0  0  0  0  0
   12.0545   10.2581    0.0000 C   0  0  0  0  0  0  0  0  0  0  0  0
   11.1729    9.0446    0.0000 C   0  0  0  0  0  0  0  0  0  0  0  0
   10.2167    7.8888    0.0000 C   0  0  0  0  0  0  0  0  0  0  0  0
    9.1899    6.7954    0.0000 C   0  0  0  0  0  0  0  0  0  0  0  0
    8.0965    5.7686    0.0000 C   0  0  0  0  0  0  0  0  0  0  0  0
    6.9407    4.8124    0.0000 C   0  0  0  0  0  0  0  0  0  0  0  0
    5.7272    3.9308    0.0000 C   0  0  0  0  0  0  0  0  0  0  0  0
    4.4607    3.1270    0.0000 C   0  0  0  0  0  0  0  0  0  0  0  0
    3.1462    2.4044    0.0000 C   0  0  0  0  0  0  0  0  0  0  0  0
    1.7890    1.7657    0.0000 C   0  0  0  0  0  0  0  0  0  0  0  0
    0.3943    1.2135    0.0000 C   0  0  0  0  0  0  0  0  0  0  0  0
    1.2760    0.0000    0.0000 C   0  0  0  0  0  0  0  0  0  0  0  0
    0.3943   -1.2135    0.0000 C   0  0  0  0  0  0  0  0  0  0  0  0
   -1.0323   -0.7500    0.0000 C   0  0  0  0  0  0  0  0  0  0  0  0
   -1.0323    0.7500    0.0000 C   0  0  0  0  0  0  0  0  0  0  0  0
  1  2  1  0
  2  3  1  0
  3  4  1  0
  4  5  1  0
  5  6  1  0
  6  7  1  0
  7  8  1  0
  8  9  1  0
  9 10  1  0
 10 11  1  0
 11 12  1  0
 12 13  1  0
 13 14  1  0
 14 15  1  0
 15 16  1  0
 16 17  1  0
 17 18  1  0
 18 19  1  0
 19 20  1  0
 20 21  1  0
 21 22  1  0
 22 23  1  0
 23 24  1  0
 24 25  1  0
 25 26  1  0
 26 27  1  0
 27 28  1  0
 28 29  1  0
 29 30  1  0
 30 31  1  0
 31 32  1  0
 32 33  1  0
 33 34  1  0
 34 35  1  0
 35 36  1  0
 36 37  1  0
 37 38  1  0
 38 39  1  0
 39 40  1  0
 40 41  1  0
 41 42  1  0
 42 43  1  0
 43 44  1  0
 44 45  1  0
 45 46  1  0
 46 47  1  0
 47 48  1  0
 48 49  1  0
 49 50  1  0
 50 51  1  0
 51 52  1  0
 52 53  1  0
 53 54  1  0
 54 55  1  0
 55 56  1  0
 56 57  1  0
 57 58  1  0
 58 59  1  0
 59 60  1  0
 60 61  1  0
 61 62  1  0
 62 63  1  0
 63 64  1  0
 64 65  1  0
 65 66  1  0
 66 67  1  0
 67 68  1  0
 68 69  1  0
 69 70  1  0
 70 71  1  0
 71 72  1  0
 72 73  1  0
 73 74  1  0
 74 75  1  0
 75 76  1  0
 76 77  1  0
 77 78  1  0
 78 79  1  0
 79 80  1  0
 80 81  1  0
 81 82  1  0
 82 83  1  0
 83 84  1  0
 84 85  1  0
 85 86  1  0
 86 87  1  0
 87 88  2  0
 88 89  1  0
 89 90  2  0
 90 91  1  0
 91 92  2  0
 92 93  1  0
 93 94  2  0
 94 95  1  0
 95 96  2  0
 96 97  1  0
 97 98  2  0
 98 99  1  0
 99100  2  0
100101  1  0
101102  2  0
102103  1  0
103104  2  0
104  2  1  0
104100  1  0
M  END
>  <Title>  (1255) 
idABUIgen14

$$$$

     RDKit          2D

 13 13  0  0  0  0  0  0  0  0999 V2000
    8.2500   -3.8971    0.0000 C   0  0  0  0  0  0  0  0  0  0  0  0
    7.5000   -2.5981    0.0000 N   0  0  0  0  0  0  0  0  0  0  0  0
    6.0000   -2.5981    0.0000 C   0  0  0  0  0  0  0  0  0  0  0  0
    5.2500   -3.8971    0.0000 O   0  0  0  0  0  0  0  0  0  0  0  0
    5.2500   -1.2990    0.0000 N   0  0  0  0  0  0  0  0  0  0  0  0
    3.7500   -1.2990    0.0000 C   0  0  0  0  0  0  0  0  0  0  0  0
    3.0000    0.0000    0.0000 C   0  0  0  0  0  0  0  0  0  0  0  0
    1.5000    0.0000    0.0000 C   0  0  0  0  0  0  0  0  0  0  0  0
    0.7500   -1.2990    0.0000 C   0  0  0  0  0  0  0  0  0  0  0  0
   -0.7500   -1.2990    0.0000 C   0  0  0  0  0  0  0  0  0  0  0  0
   -1.5000    0.0000    0.0000 C   0  0  0  0  0  0  0  0  0  0  0  0
   -0.7500    1.2990    0.0000 N   0  0  0  0  0  0  0  0  0  0  0  0
    0.7500    1.2990    0.0000 C   0  0  0  0  0  0  0  0  0  0  0  0
  1  2  1  0
  2  3  1  0
  3  4  2  0
  3  5  1  0
  5  6  1  0
  6  7  1  0
  7  8  1  0
  8  9  2  0
  9 10  1  0
 10 11  2  0
 11 12  1  0
 12 13  2  0
 13  8  1  0
M  END
>  <Title>  (1256) 
idABUJgen14

$$$$

     RDKit          2D

  6  6  0  0  0  0  0  0  0  0999 V2000
    2.7760    0.0000    0.0000 O   0  0  0  0  0  0  0  0  0  0  0  0
    1.2760    0.0000    0.0000 C   0  0  0  0  0  0  0  0  0  0  0  0
    0.3943    1.2135    0.0000 C   0  0  0  0  0  0  0  0  0  0  0  0
   -1.0323    0.7500    0.0000 C   0  0  0  0  0  0  0  0  0  0  0  0
   -1.0323   -0.7500    0.0000 C   0  0  0  0  0  0  0  0  0  0  0  0
    0.3943   -1.2135    0.0000 C   0  0  0  0  0  0  0  0  0  0  0  0
  1  2  1  0
  2  3  1  0
  3  4  2  0
  4  5  1  0
  5  6  1  0
  6  2  1  0
M  END
>  <Title>  (1257) 
idABUKgen14

$$$$

     RDKit          2D

 37 42  0  0  0  0  0  0  0  0999 V2000
   -1.3240   -6.3062    0.0000 C   0  0  0  0  0  0  0  0  0  0  0  0
   -0.7500   -4.9204    0.0000 C   0  0  0  0  0  0  0  0  0  0  0  0
    0.7500   -4.9204    0.0000 C   0  0  0  0  0  0  0  0  0  0  0  0
    1.8107   -3.8597    0.0000 C   0  0  0  0  0  0  0  0  0  0  0  0
    1.8107   -2.3597    0.0000 C   0  0  0  0  0  0  0  0  0  0  0  0
    3.1965   -1.7857    0.0000 C   0  0  0  0  0  0  0  0  0  0  0  0
    3.3923   -0.2985    0.0000 O   0  0  0  0  0  0  0  0  0  0  0  0
    4.3865   -2.6988    0.0000 N   0  0  0  0  0  0  0  0  0  0  0  0
    5.7723   -2.1248    0.0000 C   0  0  0  0  0  0  0  0  0  0  0  0
    6.1225   -0.6662    0.0000 N   0  0  0  0  0  0  0  0  0  0  0  0
    7.6179   -0.5485    0.0000 N   0  0  0  0  0  0  0  0  0  0  0  0
    8.1919   -1.9344    0.0000 N   0  0  0  0  0  0  0  0  0  0  0  0
    7.0513   -2.9085    0.0000 N   0  0  0  0  0  0  0  0  0  0  0  0
    7.1690   -4.4039    0.0000 N   0  0  0  0  0  0  0  0  0  0  0  0
    8.4479   -5.1877    0.0000 C   0  0  0  0  0  0  0  0  0  0  0  0
    8.0978   -6.6462    0.0000 C   0  0  0  0  0  0  0  0  0  0  0  0
    6.6024   -6.7639    0.0000 C   0  0  0  0  0  0  0  0  0  0  0  0
    5.8186   -8.0429    0.0000 N   0  0  0  0  0  0  0  0  0  0  0  0
    4.3192   -8.0036    0.0000 C   0  0  0  0  0  0  0  0  0  0  0  0
    3.5354   -9.2826    0.0000 C   0  0  0  0  0  0  0  0  0  0  0  0
    4.2512  -10.6008    0.0000 N   0  0  0  0  0  0  0  0  0  0  0  0
    5.7506  -10.6401    0.0000 N   0  0  0  0  0  0  0  0  0  0  0  0
    6.5344   -9.3611    0.0000 N   0  0  0  0  0  0  0  0  0  0  0  0
    6.0284   -5.3781    0.0000 C   0  0  0  0  0  0  0  0  0  0  0  0
    4.5698   -5.0279    0.0000 O   0  0  0  0  0  0  0  0  0  0  0  0
    0.7500   -1.2990    0.0000 C   0  0  0  0  0  0  0  0  0  0  0  0
    1.5000    0.0000    0.0000 C   0  0  0  0  0  0  0  0  0  0  0  0
    0.7500    1.2990    0.0000 C   0  0  0  0  0  0  0  0  0  0  0  0
   -0.7500    1.2990    0.0000 C   0  0  0  0  0  0  0  0  0  0  0  0
   -1.5000    0.0000    0.0000 C   0  0  0  0  0  0  0  0  0  0  0  0
   -0.7500   -1.2990    0.0000 C   0  0  0  0  0  0  0  0  0  0  0  0
   -1.8107   -2.3597    0.0000 C   0  0  0  0  0  0  0  0  0  0  0  0
   -3.1097   -1.6097    0.0000 C   0  0  0  0  0  0  0  0  0  0  0  0
   -4.4087   -2.3597    0.0000 C   0  0  0  0  0  0  0  0  0  0  0  0
   -4.4087   -3.8597    0.0000 C   0  0  0  0  0  0  0  0  0  0  0  0
   -3.1097   -4.6097    0.0000 C   0  0  0  0  0  0  0  0  0  0  0  0
   -1.8107   -3.8597    0.0000 C   0  0  0  0  0  0  0  0  0  0  0  0
  1  2  1  0
  2  3  1  0
  3  4  1  0
  4  5  1  0
  5  6  1  0
  6  7  2  0
  6  8  1  0
  8  9  1  0
  9 10  2  0
 10 11  1  0
 11 12  2  0
 12 13  1  0
 13 14  1  0
 14 15  1  0
 15 16  1  0
 16 17  1  0
 17 18  1  0
 18 19  1  0
 19 20  1  0
 20 21  2  0
 21 22  1  0
 22 23  2  0
 17 24  1  0
 24 25  2  0
  5 26  1  0
 26 27  2  0
 27 28  1  0
 28 29  2  0
 29 30  1  0
 30 31  2  0
 31 32  1  0
 32 33  2  0
 33 34  1  0
 34 35  2  0
 35 36  1  0
 36 37  2  0
 37  2  1  0
 13  9  1  0
 24 14  1  0
 31 26  1  0
 37 32  1  0
 23 18  1  0
M  END
>  <Title>  (1258) 
idABULgen14

$$$$

     RDKit          2D

108107  0  0  0  0  0  0  0  0999 V2000
    0.0000    0.0000    0.0000 C   0  0  0  0  0  0  0  0  0  0  0  0
    1.2990    0.7500    0.0000 C   0  0  0  0  0  0  0  0  0  0  0  0
    2.5981   -0.0000    0.0000 C   0  0  0  0  0  0  0  0  0  0  0  0
    3.8971    0.7500    0.0000 C   0  0  0  0  0  0  0  0  0  0  0  0
    5.1962   -0.0000    0.0000 C   0  0  0  0  0  0  0  0  0  0  0  0
    6.4952    0.7500    0.0000 C   0  0  0  0  0  0  0  0  0  0  0  0
    7.7942   -0.0000    0.0000 C   0  0  0  0  0  0  0  0  0  0  0  0
    9.0933    0.7500    0.0000 C   0  0  0  0  0  0  0  0  0  0  0  0
   10.3923   -0.0000    0.0000 C   0  0  0  0  0  0  0  0  0  0  0  0
   11.6913    0.7500    0.0000 C   0  0  0  0  0  0  0  0  0  0  0  0
   12.9904   -0.0000    0.0000 C   0  0  0  0  0  0  0  0  0  0  0  0
   14.2894    0.7500    0.0000 C   0  0  0  0  0  0  0  0  0  0  0  0
   15.5885   -0.0000    0.0000 C   0  0  0  0  0  0  0  0  0  0  0  0
   16.8875    0.7500    0.0000 C   0  0  0  0  0  0  0  0  0  0  0  0
   18.1865   -0.0000    0.0000 C   0  0  0  0  0  0  0  0  0  0  0  0
   19.4856    0.7500    0.0000 C   0  0  0  0  0  0  0  0  0  0  0  0
   20.7846   -0.0000    0.0000 C   0  0  0  0  0  0  0  0  0  0  0  0
   22.0836    0.7500    0.0000 C   0  0  0  0  0  0  0  0  0  0  0  0
   23.3827   -0.0000    0.0000 C   0  0  0  0  0  0  0  0  0  0  0  0
   24.6817    0.7500    0.0000 C   0  0  0  0  0  0  0  0  0  0  0  0
   25.9808   -0.0000    0.0000 C   0  0  0  0  0  0  0  0  0  0  0  0
   27.2798    0.7500    0.0000 C   0  0  0  0  0  0  0  0  0  0  0  0
   28.5788   -0.0000    0.0000 C   0  0  0  0  0  0  0  0  0  0  0  0
   29.8779    0.7500    0.0000 C   0  0  0  0  0  0  0  0  0  0  0  0
   31.1769   -0.0000    0.0000 C   0  0  0  0  0  0  0  0  0  0  0  0
   32.4760    0.7500    0.0000 C   0  0  0  0  0  0  0  0  0  0  0  0
   33.7750   -0.0000    0.0000 C   0  0  0  0  0  0  0  0  0  0  0  0
   35.0740    0.7500    0.0000 C   0  0  0  0  0  0  0  0  0  0  0  0
   36.3731   -0.0000    0.0000 C   0  0  0  0  0  0  0  0  0  0  0  0
   37.6721    0.7500    0.0000 C   0  0  0  0  0  0  0  0  0  0  0  0
   38.9711   -0.0000    0.0000 C   0  0  0  0  0  0  0  0  0  0  0  0
   40.2702    0.7500    0.0000 C   0  0  0  0  0  0  0  0  0  0  0  0
   41.5692   -0.0000    0.0000 C   0  0  0  0  0  0  0  0  0  0  0  0
   42.8683    0.7500    0.0000 C   0  0  0  0  0  0  0  0  0  0  0  0
   44.1673   -0.0000    0.0000 C   0  0  0  0  0  0  0  0  0  0  0  0
   45.4663    0.7500    0.0000 C   0  0  0  0  0  0  0  0  0  0  0  0
   46.7654   -0.0000    0.0000 C   0  0  0  0  0  0  0  0  0  0  0  0
   48.0644    0.7500    0.0000 C   0  0  0  0  0  0  0  0  0  0  0  0
   49.3634   -0.0000    0.0000 C   0  0  0  0  0  0  0  0  0  0  0  0
   50.6625    0.7500    0.0000 C   0  0  0  0  0  0  0  0  0  0  0  0
   51.9615   -0.0000    0.0000 C   0  0  0  0  0  0  0  0  0  0  0  0
   53.2606    0.7500    0.0000 C   0  0  0  0  0  0  0  0  0  0  0  0
   54.5596   -0.0000    0.0000 C   0  0  0  0  0  0  0  0  0  0  0  0
   55.8586    0.7500    0.0000 C   0  0  0  0  0  0  0  0  0  0  0  0
   57.1577   -0.0000    0.0000 C   0  0  0  0  0  0  0  0  0  0  0  0
   58.4567    0.7500    0.0000 C   0  0  0  0  0  0  0  0  0  0  0  0
   59.7558   -0.0000    0.0000 C   0  0  0  0  0  0  0  0  0  0  0  0
   61.0548    0.7500    0.0000 C   0  0  0  0  0  0  0  0  0  0  0  0
   62.3538   -0.0000    0.0000 C   0  0  0  0  0  0  0  0  0  0  0  0
   63.6529    0.7500    0.0000 C   0  0  0  0  0  0  0  0  0  0  0  0
   64.9519   -0.0000    0.0000 C   0  0  0  0  0  0  0  0  0  0  0  0
   66.2509    0.7500    0.0000 C   0  0  0  0  0  0  0  0  0  0  0  0
   67.5500   -0.0000    0.0000 C   0  0  0  0  0  0  0  0  0  0  0  0
   68.8490    0.7500    0.0000 C   0  0  0  0  0  0  0  0  0  0  0  0
   70.1481   -0.0000    0.0000 C   0  0  0  0  0  0  0  0  0  0  0  0
   71.4471    0.7500    0.0000 C   0  0  0  0  0  0  0  0  0  0  0  0
   72.7461   -0.0000    0.0000 C   0  0  0  0  0  0  0  0  0  0  0  0
   74.0452    0.7500    0.0000 C   0  0  0  0  0  0  0  0  0  0  0  0
   75.3442   -0.0000    0.0000 C   0  0  0  0  0  0  0  0  0  0  0  0
   76.6432    0.7500    0.0000 C   0  0  0  0  0  0  0  0  0  0  0  0
   77.9423   -0.0000    0.0000 C   0  0  0  0  0  0  0  0  0  0  0  0
   79.2413    0.7500    0.0000 C   0  0  0  0  0  0  0  0  0  0  0  0
   80.5404   -0.0000    0.0000 C   0  0  0  0  0  0  0  0  0  0  0  0
   81.8394    0.7500    0.0000 C   0  0  0  0  0  0  0  0  0  0  0  0
   83.1384   -0.0000    0.0000 C   0  0  0  0  0  0  0  0  0  0  0  0
   84.4375    0.7500    0.0000 C   0  0  0  0  0  0  0  0  0  0  0  0
   85.7365   -0.0000    0.0000 C   0  0  0  0  0  0  0  0  0  0  0  0
   87.0356    0.7500    0.0000 C   0  0  0  0  0  0  0  0  0  0  0  0
   88.3346   -0.0000    0.0000 C   0  0  0  0  0  0  0  0  0  0  0  0
   89.6336    0.7500    0.0000 C   0  0  0  0  0  0  0  0  0  0  0  0
   90.9327   -0.0000    0.0000 C   0  0  0  0  0  0  0  0  0  0  0  0
   92.2317    0.7500    0.0000 C   0  0  0  0  0  0  0  0  0  0  0  0
   93.5307   -0.0000    0.0000 C   0  0  0  0  0  0  0  0  0  0  0  0
   94.8298    0.7500    0.0000 C   0  0  0  0  0  0  0  0  0  0  0  0
   96.1288   -0.0000    0.0000 C   0  0  0  0  0  0  0  0  0  0  0  0
   97.4279    0.7500    0.0000 C   0  0  0  0  0  0  0  0  0  0  0  0
   98.7269   -0.0000    0.0000 C   0  0  0  0  0  0  0  0  0  0  0  0
  100.0259    0.7500    0.0000 C   0  0  0  0  0  0  0  0  0  0  0  0
  101.3250   -0.0000    0.0000 C   0  0  0  0  0  0  0  0  0  0  0  0
  102.6240    0.7500    0.0000 C   0  0  0  0  0  0  0  0  0  0  0  0
  103.9230   -0.0000    0.0000 C   0  0  0  0  0  0  0  0  0  0  0  0
  105.2221    0.7500    0.0000 C   0  0  0  0  0  0  0  0  0  0  0  0
  106.5211   -0.0000    0.0000 C   0  0  0  0  0  0  0  0  0  0  0  0
  107.8202    0.7500    0.0000 C   0  0  0  0  0  0  0  0  0  0  0  0
  109.1192   -0.0000    0.0000 C   0  0  0  0  0  0  0  0  0  0  0  0
  110.4182    0.7500    0.0000 C   0  0  0  0  0  0  0  0  0  0  0  0
  111.7173   -0.0000    0.0000 C   0  0  0  0  0  0  0  0  0  0  0  0
  113.0163    0.7500    0.0000 C   0  0  0  0  0  0  0  0  0  0  0  0
  114.3154   -0.0000    0.0000 C   0  0  0  0  0  0  0  0  0  0  0  0
  115.6144    0.7500    0.0000 C   0  0  0  0  0  0  0  0  0  0  0  0
  116.9134   -0.0000    0.0000 C   0  0  0  0  0  0  0  0  0  0  0  0
  118.2125    0.7500    0.0000 C   0  0  0  0  0  0  0  0  0  0  0  0
  119.5115   -0.0000    0.0000 C   0  0  0  0  0  0  0  0  0  0  0  0
  120.8105    0.7500    0.0000 C   0  0  0  0  0  0  0  0  0  0  0  0
  122.1096   -0.0000    0.0000 C   0  0  0  0  0  0  0  0  0  0  0  0
  123.4086    0.7500    0.0000 C   0  0  0  0  0  0  0  0  0  0  0  0
  124.7077   -0.0000    0.0000 C   0  0  0  0  0  0  0  0  0  0  0  0
  126.0067    0.7500    0.0000 C   0  0  0  0  0  0  0  0  0  0  0  0
  127.3057   -0.0000    0.0000 C   0  0  0  0  0  0  0  0  0  0  0  0
  128.6048    0.7500    0.0000 C   0  0  0  0  0  0  0  0  0  0  0  0
  129.9038   -0.0000    0.0000 C   0  0  0  0  0  0  0  0  0  0  0  0
  131.2028    0.7500    0.0000 C   0  0  0  0  0  0  0  0  0  0  0  0
  132.5019   -0.0000    0.0000 C   0  0  0  0  0  0  0  0  0  0  0  0
  133.8009    0.7500    0.0000 C   0  0  0  0  0  0  0  0  0  0  0  0
  135.1000   -0.0000    0.0000 C   0  0  0  0  0  0  0  0  0  0  0  0
  136.3990    0.7500    0.0000 C   0  0  0  0  0  0  0  0  0  0  0  0
  137.6980   -0.0000    0.0000 C   0  0  0  0  0  0  0  0  0  0  0  0
  138.9971    0.7500    0.0000 C   0  0  0  0  0  0  0  0  0  0  0  0
  1  2  2  0
  2  3  1  0
  3  4  2  3
  4  5  1  0
  5  6  2  3
  6  7  1  0
  7  8  2  3
  8  9  1  0
  9 10  2  3
 10 11  1  0
 11 12  2  3
 12 13  1  0
 13 14  2  3
 14 15  1  0
 15 16  2  3
 16 17  1  0
 17 18  2  3
 18 19  1  0
 19 20  2  3
 20 21  1  0
 21 22  2  3
 22 23  1  0
 23 24  2  3
 24 25  1  0
 25 26  2  3
 26 27  1  0
 27 28  2  3
 28 29  1  0
 29 30  2  3
 30 31  1  0
 31 32  2  3
 32 33  1  0
 33 34  2  3
 34 35  1  0
 35 36  2  3
 36 37  1  0
 37 38  2  3
 38 39  1  0
 39 40  2  3
 40 41  1  0
 41 42  1  0
 42 43  1  0
 43 44  1  0
 44 45  1  0
 45 46  1  0
 46 47  1  0
 47 48  1  0
 48 49  1  0
 49 50  1  0
 50 51  1  0
 51 52  1  0
 52 53  1  0
 53 54  1  0
 54 55  1  0
 55 56  1  0
 56 57  1  0
 57 58  1  0
 58 59  1  0
 59 60  1  0
 60 61  1  0
 61 62  1  0
 62 63  1  0
 63 64  1  0
 64 65  1  0
 65 66  1  0
 66 67  1  0
 67 68  1  0
 68 69  1  0
 69 70  1  0
 70 71  1  0
 71 72  1  0
 72 73  1  0
 73 74  1  0
 74 75  1  0
 75 76  1  0
 76 77  1  0
 77 78  1  0
 78 79  1  0
 79 80  1  0
 80 81  1  0
 81 82  1  0
 82 83  1  0
 83 84  1  0
 84 85  1  0
 85 86  1  0
 86 87  1  0
 87 88  1  0
 88 89  1  0
 89 90  1  0
 90 91  1  0
 91 92  1  0
 92 93  1  0
 93 94  1  0
 94 95  1  0
 95 96  1  0
 96 97  1  0
 97 98  1  0
 98 99  1  0
 99100  1  0
100101  1  0
101102  1  0
102103  1  0
103104  1  0
104105  1  0
105106  1  0
106107  1  0
107108  1  0
M  END
>  <Title>  (1259) 
idABUMgen14

$$$$

     RDKit          2D

  6  5  0  0  0  0  0  0  0  0999 V2000
    0.0000    0.0000    0.0000 C   0  0  0  0  0  0  0  0  0  0  0  0
    1.2990    0.7500    0.0000 C   0  0  0  0  0  0  0  0  0  0  0  0
    2.5981   -0.0000    0.0000 C   0  0  0  0  0  0  0  0  0  0  0  0
    3.8971    0.7500    0.0000 C   0  0  0  0  0  0  0  0  0  0  0  0
    5.1962   -0.0000    0.0000 C   0  0  0  0  0  0  0  0  0  0  0  0
    6.4952   -0.7500    0.0000 N   0  0  0  0  0  0  0  0  0  0  0  0
  1  2  1  0
  2  3  1  0
  3  4  1  0
  4  5  1  0
  5  6  3  0
M  END
>  <Title>  (1260) 
idABUNgen14

$$$$

     RDKit          2D

 37 41  0  0  0  0  0  0  0  0999 V2000
   -3.1981   -1.5132    0.0000 C   0  0  0  0  0  0  0  0  0  0  0  0
   -1.8991   -2.2632    0.0000 C   0  0  0  0  0  0  0  0  0  0  0  0
   -2.1595   -3.7404    0.0000 C   0  0  0  0  0  0  0  0  0  0  0  0
   -1.4095   -5.0395    0.0000 C   0  0  0  0  0  0  0  0  0  0  0  0
   -0.0000   -5.5525    0.0000 C   0  0  0  0  0  0  0  0  0  0  0  0
    1.4095   -5.0395    0.0000 C   0  0  0  0  0  0  0  0  0  0  0  0
    2.1595   -3.7404    0.0000 C   0  0  0  0  0  0  0  0  0  0  0  0
    1.8991   -2.2632    0.0000 C   0  0  0  0  0  0  0  0  0  0  0  0
    3.1981   -1.5132    0.0000 C   0  0  0  0  0  0  0  0  0  0  0  0
    3.1981   -0.0132    0.0000 O   0  0  0  0  0  0  0  0  0  0  0  0
    4.4971   -2.2632    0.0000 N   0  0  0  0  0  0  0  0  0  0  0  0
    5.7962   -1.5132    0.0000 C   0  0  0  0  0  0  0  0  0  0  0  0
    5.9530   -0.0214    0.0000 N   0  0  0  0  0  0  0  0  0  0  0  0
    7.4202    0.2904    0.0000 N   0  0  0  0  0  0  0  0  0  0  0  0
    8.1702   -1.0086    0.0000 N   0  0  0  0  0  0  0  0  0  0  0  0
    7.1665   -2.1233    0.0000 N   0  0  0  0  0  0  0  0  0  0  0  0
    7.4784   -3.5905    0.0000 N   0  0  0  0  0  0  0  0  0  0  0  0
    8.8487   -4.2007    0.0000 C   0  0  0  0  0  0  0  0  0  0  0  0
    8.6919   -5.6924    0.0000 C   0  0  0  0  0  0  0  0  0  0  0  0
    7.2247   -6.0043    0.0000 N   0  0  0  0  0  0  0  0  0  0  0  0
    6.6146   -7.3746    0.0000 C   0  0  0  0  0  0  0  0  0  0  0  0
    7.4962   -8.5881    0.0000 O   0  0  0  0  0  0  0  0  0  0  0  0
    5.1228   -7.5314    0.0000 N   0  0  0  0  0  0  0  0  0  0  0  0
    4.5127   -8.9017    0.0000 C   0  0  0  0  0  0  0  0  0  0  0  0
    3.0209   -9.0585    0.0000 N   0  0  0  0  0  0  0  0  0  0  0  0
    2.4108  -10.4288    0.0000 N   0  0  0  0  0  0  0  0  0  0  0  0
    3.2925  -11.6424    0.0000 N   0  0  0  0  0  0  0  0  0  0  0  0
    4.7843  -11.4856    0.0000 N   0  0  0  0  0  0  0  0  0  0  0  0
    5.3944  -10.1153    0.0000 N   0  0  0  0  0  0  0  0  0  0  0  0
    6.4747   -4.7053    0.0000 C   0  0  0  0  0  0  0  0  0  0  0  0
    4.9829   -4.5485    0.0000 O   0  0  0  0  0  0  0  0  0  0  0  0
    0.7500   -1.2990    0.0000 C   0  0  0  0  0  0  0  0  0  0  0  0
    1.5000    0.0000    0.0000 C   0  0  0  0  0  0  0  0  0  0  0  0
    0.7500    1.2990    0.0000 C   0  0  0  0  0  0  0  0  0  0  0  0
   -0.7500    1.2990    0.0000 C   0  0  0  0  0  0  0  0  0  0  0  0
   -1.5000    0.0000    0.0000 C   0  0  0  0  0  0  0  0  0  0  0  0
   -0.7500   -1.2990    0.0000 C   0  0  0  0  0  0  0  0  0  0  0  0
  1  2  1  0
  2  3  1  0
  3  4  2  0
  4  5  1  0
  5  6  1  0
  6  7  1  0
  7  8  1  0
  8  9  1  0
  9 10  2  0
  9 11  1  0
 11 12  1  0
 12 13  2  0
 13 14  1  0
 14 15  2  0
 15 16  1  0
 16 17  1  0
 17 18  1  0
 18 19  1  0
 19 20  1  0
 20 21  1  0
 21 22  2  0
 21 23  1  0
 23 24  1  0
 24 25  2  0
 25 26  1  0
 26 27  2  0
 27 28  1  0
 28 29  2  0
 20 30  1  0
 30 31  2  0
  8 32  1  0
 32 33  2  0
 33 34  1  0
 34 35  2  0
 35 36  1  0
 36 37  2  0
 37  2  1  0
 16 12  1  0
 30 17  1  0
 37 32  1  0
 29 24  1  0
M  END
>  <Title>  (1261) 
idABUOgen14

$$$$

     RDKit          2D

  9  9  0  0  0  0  0  0  0  0999 V2000
    4.5000   -2.5981    0.0000 N   0  0  0  0  0  0  0  0  0  0  0  0
    3.7500   -1.2990    0.0000 C   0  0  0  0  0  0  0  0  0  0  0  0
    3.0000    0.0000    0.0000 C   0  0  0  0  0  0  0  0  0  0  0  0
    1.5000    0.0000    0.0000 C   0  0  0  0  0  0  0  0  0  0  0  0
    0.7500   -1.2990    0.0000 C   0  0  0  0  0  0  0  0  0  0  0  0
   -0.7500   -1.2990    0.0000 C   0  0  0  0  0  0  0  0  0  0  0  0
   -1.5000    0.0000    0.0000 C   0  0  0  0  0  0  0  0  0  0  0  0
   -0.7500    1.2990    0.0000 N   0  0  0  0  0  0  0  0  0  0  0  0
    0.7500    1.2990    0.0000 C   0  0  0  0  0  0  0  0  0  0  0  0
  1  2  3  0
  2  3  1  0
  3  4  1  0
  4  5  2  0
  5  6  1  0
  6  7  2  0
  7  8  1  0
  8  9  2  0
  9  4  1  0
M  END
>  <Title>  (1262) 
idABUPgen14

$$$$

     RDKit          2D

 11 11  0  0  0  0  0  0  0  0999 V2000
    7.2760   -2.5981    0.0000 C   0  0  0  0  0  0  0  0  0  0  0  0
    5.7760   -2.5981    0.0000 C   0  0  0  0  0  0  0  0  0  0  0  0
    5.0260   -1.2990    0.0000 C   0  0  0  0  0  0  0  0  0  0  0  0
    3.5260   -1.2990    0.0000 C   0  0  0  0  0  0  0  0  0  0  0  0
    2.7760   -2.5981    0.0000 O   0  0  0  0  0  0  0  0  0  0  0  0
    2.7760    0.0000    0.0000 N   0  0  0  0  0  0  0  0  0  0  0  0
    1.2760    0.0000    0.0000 C   0  0  0  0  0  0  0  0  0  0  0  0
    0.3943    1.2135    0.0000 C   0  0  0  0  0  0  0  0  0  0  0  0
   -1.0323    0.7500    0.0000 S   0  0  0  0  0  0  0  0  0  0  0  0
   -1.0323   -0.7500    0.0000 C   0  0  0  0  0  0  0  0  0  0  0  0
    0.3943   -1.2135    0.0000 N   0  0  0  0  0  0  0  0  0  0  0  0
  1  2  1  0
  2  3  1  0
  3  4  1  0
  4  5  2  0
  4  6  1  0
  6  7  1  0
  7  8  2  0
  8  9  1  0
  9 10  1  0
 10 11  2  0
 11  7  1  0
M  END
>  <Title>  (1263) 
idABUQgen14

$$$$

     RDKit          2D

  8  8  0  0  0  0  0  0  0  0999 V2000
    5.7760   -0.0000    0.0000 C   0  0  0  0  0  0  0  0  0  0  0  0
    4.2760   -0.0000    0.0000 C   0  0  0  0  0  0  0  0  0  0  0  0
    2.7760    0.0000    0.0000 C   0  0  0  0  0  0  0  0  0  0  0  0
    1.2760    0.0000    0.0000 C   0  0  0  0  0  0  0  0  0  0  0  0
    0.3943    1.2135    0.0000 C   0  0  0  0  0  0  0  0  0  0  0  0
   -1.0323    0.7500    0.0000 C   0  0  0  0  0  0  0  0  0  0  0  0
   -1.0323   -0.7500    0.0000 C   0  0  0  0  0  0  0  0  0  0  0  0
    0.3943   -1.2135    0.0000 N   0  0  0  0  0  0  0  0  0  0  0  0
  1  2  1  0
  2  3  3  0
  3  4  1  0
  4  5  2  0
  5  6  1  0
  6  7  2  0
  7  8  1  0
  8  4  1  0
M  END
>  <Title>  (1264) 
idABURgen14

$$$$

     RDKit          2D

 11 11  0  0  0  0  0  0  0  0999 V2000
    5.0490   -0.5490    0.0000 C   0  0  0  0  0  0  0  0  0  0  0  0
    3.7500   -1.2990    0.0000 C   0  0  0  0  0  0  0  0  0  0  0  0
    2.4510   -2.0490    0.0000 C   0  0  0  0  0  0  0  0  0  0  0  0
    4.5000   -2.5981    0.0000 C   0  0  0  0  0  0  0  0  0  0  0  0
    3.0000    0.0000    0.0000 N   0  0  0  0  0  0  0  0  0  0  0  0
    1.5000    0.0000    0.0000 C   0  0  0  0  0  0  0  0  0  0  0  0
    0.7500   -1.2990    0.0000 C   0  0  0  0  0  0  0  0  0  0  0  0
   -0.7500   -1.2990    0.0000 C   0  0  0  0  0  0  0  0  0  0  0  0
   -1.5000    0.0000    0.0000 N   0  0  0  0  0  0  0  0  0  0  0  0
   -0.7500    1.2990    0.0000 C   0  0  0  0  0  0  0  0  0  0  0  0
    0.7500    1.2990    0.0000 C   0  0  0  0  0  0  0  0  0  0  0  0
  1  2  1  0
  2  3  1  0
  2  4  1  0
  2  5  1  0
  5  6  1  0
  6  7  2  0
  7  8  1  0
  8  9  2  0
  9 10  1  0
 10 11  2  0
 11  6  1  0
M  END
>  <Title>  (1265) 
idABUSgen14

$$$$

     RDKit          2D

  8  8  0  0  0  0  0  0  0  0999 V2000
    5.0260   -1.2990    0.0000 C   0  0  0  0  0  0  0  0  0  0  0  0
    3.5260   -1.2990    0.0000 C   0  0  0  0  0  0  0  0  0  0  0  0
    2.7760    0.0000    0.0000 C   0  0  0  0  0  0  0  0  0  0  0  0
    1.2760    0.0000    0.0000 C   0  0  0  0  0  0  0  0  0  0  0  0
    0.3943    1.2135    0.0000 C   0  0  0  0  0  0  0  0  0  0  0  0
   -1.0323    0.7500    0.0000 C   0  0  0  0  0  0  0  0  0  0  0  0
   -1.0323   -0.7500    0.0000 C   0  0  0  0  0  0  0  0  0  0  0  0
    0.3943   -1.2135    0.0000 N   0  0  0  0  0  0  0  0  0  0  0  0
  1  2  1  0
  2  3  1  0
  3  4  1  0
  4  5  2  0
  5  6  1  0
  6  7  1  0
  7  8  2  0
  8  4  1  0
M  END
>  <Title>  (1266) 
idABUTgen14

$$$$

     RDKit          2D

  6  5  0  0  0  0  0  0  0  0999 V2000
    0.0000    0.0000    0.0000 C   0  0  0  0  0  0  0  0  0  0  0  0
    1.2990    0.7500    0.0000 C   0  0  0  0  0  0  0  0  0  0  0  0
    2.5981   -0.0000    0.0000 C   0  0  0  0  0  0  0  0  0  0  0  0
    3.8971    0.7500    0.0000 N   0  0  0  0  0  0  0  0  0  0  0  0
    2.5981   -1.5000    0.0000 N   0  0  0  0  0  0  0  0  0  0  0  0
    3.8971   -2.2500    0.0000 C   0  0  0  0  0  0  0  0  0  0  0  0
  1  2  1  0
  2  3  1  0
  3  4  1  0
  3  5  1  0
  5  6  1  0
M  END
>  <Title>  (1267) 
idABUUgen14

$$$$

     RDKit          2D

 41 46  0  0  0  0  0  0  0  0999 V2000
   -2.3737   -6.1885    0.0000 C   0  0  0  0  0  0  0  0  0  0  0  0
   -1.4095   -5.0395    0.0000 C   0  0  0  0  0  0  0  0  0  0  0  0
   -0.0000   -5.5525    0.0000 C   0  0  0  0  0  0  0  0  0  0  0  0
    1.4095   -5.0395    0.0000 C   0  0  0  0  0  0  0  0  0  0  0  0
    2.1595   -3.7404    0.0000 C   0  0  0  0  0  0  0  0  0  0  0  0
    1.8991   -2.2632    0.0000 C   0  0  0  0  0  0  0  0  0  0  0  0
    3.1981   -1.5132    0.0000 C   0  0  0  0  0  0  0  0  0  0  0  0
    3.1981   -0.0132    0.0000 O   0  0  0  0  0  0  0  0  0  0  0  0
    4.4971   -2.2632    0.0000 N   0  0  0  0  0  0  0  0  0  0  0  0
    5.7962   -1.5132    0.0000 C   0  0  0  0  0  0  0  0  0  0  0  0
    5.9530   -0.0214    0.0000 N   0  0  0  0  0  0  0  0  0  0  0  0
    7.4202    0.2904    0.0000 N   0  0  0  0  0  0  0  0  0  0  0  0
    8.1702   -1.0086    0.0000 N   0  0  0  0  0  0  0  0  0  0  0  0
    7.1665   -2.1233    0.0000 N   0  0  0  0  0  0  0  0  0  0  0  0
    7.4784   -3.5905    0.0000 N   0  0  0  0  0  0  0  0  0  0  0  0
    8.8487   -4.2007    0.0000 C   0  0  0  0  0  0  0  0  0  0  0  0
    8.6919   -5.6924    0.0000 C   0  0  0  0  0  0  0  0  0  0  0  0
    7.2247   -6.0043    0.0000 N   0  0  0  0  0  0  0  0  0  0  0  0
    6.6146   -7.3746    0.0000 C   0  0  0  0  0  0  0  0  0  0  0  0
    7.4962   -8.5881    0.0000 O   0  0  0  0  0  0  0  0  0  0  0  0
    5.1228   -7.5314    0.0000 N   0  0  0  0  0  0  0  0  0  0  0  0
    4.5127   -8.9017    0.0000 C   0  0  0  0  0  0  0  0  0  0  0  0
    3.0209   -9.0585    0.0000 N   0  0  0  0  0  0  0  0  0  0  0  0
    2.4108  -10.4288    0.0000 N   0  0  0  0  0  0  0  0  0  0  0  0
    3.2925  -11.6424    0.0000 N   0  0  0  0  0  0  0  0  0  0  0  0
    4.7843  -11.4856    0.0000 N   0  0  0  0  0  0  0  0  0  0  0  0
    5.3944  -10.1153    0.0000 N   0  0  0  0  0  0  0  0  0  0  0  0
    6.4747   -4.7053    0.0000 C   0  0  0  0  0  0  0  0  0  0  0  0
    4.9829   -4.5485    0.0000 O   0  0  0  0  0  0  0  0  0  0  0  0
    0.7500   -1.2990    0.0000 C   0  0  0  0  0  0  0  0  0  0  0  0
    1.5000    0.0000    0.0000 C   0  0  0  0  0  0  0  0  0  0  0  0
    0.7500    1.2990    0.0000 C   0  0  0  0  0  0  0  0  0  0  0  0
   -0.7500    1.2990    0.0000 C   0  0  0  0  0  0  0  0  0  0  0  0
   -1.5000    0.0000    0.0000 C   0  0  0  0  0  0  0  0  0  0  0  0
   -0.7500   -1.2990    0.0000 C   0  0  0  0  0  0  0  0  0  0  0  0
   -1.8991   -2.2632    0.0000 C   0  0  0  0  0  0  0  0  0  0  0  0
   -3.0481   -1.2990    0.0000 C   0  0  0  0  0  0  0  0  0  0  0  0
   -4.4577   -1.8121    0.0000 C   0  0  0  0  0  0  0  0  0  0  0  0
   -4.7181   -3.2893    0.0000 C   0  0  0  0  0  0  0  0  0  0  0  0
   -3.5691   -4.2535    0.0000 C   0  0  0  0  0  0  0  0  0  0  0  0
   -2.1595   -3.7404    0.0000 C   0  0  0  0  0  0  0  0  0  0  0  0
  1  2  1  0
  2  3  1  0
  3  4  2  0
  4  5  1  0
  5  6  1  0
  6  7  1  0
  7  8  2  0
  7  9  1  0
  9 10  1  0
 10 11  2  0
 11 12  1  0
 12 13  2  0
 13 14  1  0
 14 15  1  0
 15 16  1  0
 16 17  1  0
 17 18  1  0
 18 19  1  0
 19 20  2  0
 19 21  1  0
 21 22  1  0
 22 23  2  0
 23 24  1  0
 24 25  2  0
 25 26  1  0
 26 27  2  0
 18 28  1  0
 28 29  2  0
  6 30  1  0
 30 31  2  0
 31 32  1  0
 32 33  2  0
 33 34  1  0
 34 35  2  0
 35 36  1  0
 36 37  2  0
 37 38  1  0
 38 39  2  0
 39 40  1  0
 40 41  2  0
 41  2  1  0
 14 10  1  0
 28 15  1  0
 35 30  1  0
 41 36  1  0
 27 22  1  0
M  END
>  <Title>  (1268) 
idABUVgen14

$$$$

     RDKit          2D

 24 23  0  0  0  0  0  0  0  0999 V2000
    0.0000    0.0000    0.0000 C   0  0  0  0  0  0  0  0  0  0  0  0
    1.2990    0.7500    0.0000 C   0  0  0  0  0  0  0  0  0  0  0  0
    2.5981   -0.0000    0.0000 C   0  0  0  0  0  0  0  0  0  0  0  0
    3.8971    0.7500    0.0000 C   0  0  0  0  0  0  0  0  0  0  0  0
    5.1962   -0.0000    0.0000 C   0  0  0  0  0  0  0  0  0  0  0  0
    6.4952   -0.7500    0.0000 C   0  0  0  0  0  0  0  0  0  0  0  0
    7.7942   -1.5000    0.0000 C   0  0  0  0  0  0  0  0  0  0  0  0
    9.0933   -2.2500    0.0000 C   0  0  0  0  0  0  0  0  0  0  0  0
   10.3923   -3.0000    0.0000 C   0  0  0  0  0  0  0  0  0  0  0  0
   11.6913   -3.7500    0.0000 C   0  0  0  0  0  0  0  0  0  0  0  0
   12.9904   -4.5000    0.0000 C   0  0  0  0  0  0  0  0  0  0  0  0
   14.2894   -5.2500    0.0000 C   0  0  0  0  0  0  0  0  0  0  0  0
   15.5885   -6.0000    0.0000 C   0  0  0  0  0  0  0  0  0  0  0  0
   16.8875   -6.7500    0.0000 C   0  0  0  0  0  0  0  0  0  0  0  0
   18.1865   -7.5000    0.0000 C   0  0  0  0  0  0  0  0  0  0  0  0
   19.4856   -8.2500    0.0000 C   0  0  0  0  0  0  0  0  0  0  0  0
   20.7846   -9.0000    0.0000 C   0  0  0  0  0  0  0  0  0  0  0  0
   22.0836   -9.7500    0.0000 C   0  0  0  0  0  0  0  0  0  0  0  0
   23.3827  -10.5000    0.0000 C   0  0  0  0  0  0  0  0  0  0  0  0
   24.6817  -11.2500    0.0000 C   0  0  0  0  0  0  0  0  0  0  0  0
   25.9808  -12.0000    0.0000 C   0  0  0  0  0  0  0  0  0  0  0  0
   27.2798  -12.7500    0.0000 C   0  0  0  0  0  0  0  0  0  0  0  0
   28.5788  -13.5000    0.0000 C   0  0  0  0  0  0  0  0  0  0  0  0
   29.8779  -14.2500    0.0000 N   0  0  0  0  0  0  0  0  0  0  0  0
  1  2  2  0
  2  3  1  0
  3  4  1  0
  4  5  1  0
  5  6  3  0
  6  7  1  0
  7  8  3  0
  8  9  1  0
  9 10  3  0
 10 11  1  0
 11 12  3  0
 12 13  1  0
 13 14  3  0
 14 15  1  0
 15 16  3  0
 16 17  1  0
 17 18  3  0
 18 19  1  0
 19 20  3  0
 20 21  1  0
 21 22  3  0
 22 23  1  0
 23 24  3  0
M  END
>  <Title>  (1269) 
idABUWgen14

$$$$

     RDKit          2D

 35 39  0  0  0  0  0  0  0  0999 V2000
   -3.0000   -2.5981    0.0000 C   0  0  0  0  0  0  0  0  0  0  0  0
   -1.5000   -2.5981    0.0000 N   0  0  0  0  0  0  0  0  0  0  0  0
   -0.7500   -3.8971    0.0000 C   0  0  0  0  0  0  0  0  0  0  0  0
    0.7500   -3.8971    0.0000 C   0  0  0  0  0  0  0  0  0  0  0  0
    1.5000   -2.5981    0.0000 C   0  0  0  0  0  0  0  0  0  0  0  0
    3.0000   -2.5981    0.0000 C   0  0  0  0  0  0  0  0  0  0  0  0
    3.7500   -1.2990    0.0000 O   0  0  0  0  0  0  0  0  0  0  0  0
    3.7500   -3.8971    0.0000 N   0  0  0  0  0  0  0  0  0  0  0  0
    5.2500   -3.8971    0.0000 C   0  0  0  0  0  0  0  0  0  0  0  0
    6.1317   -2.6836    0.0000 N   0  0  0  0  0  0  0  0  0  0  0  0
    7.5583   -3.1471    0.0000 N   0  0  0  0  0  0  0  0  0  0  0  0
    7.5583   -4.6471    0.0000 N   0  0  0  0  0  0  0  0  0  0  0  0
    6.1317   -5.1106    0.0000 N   0  0  0  0  0  0  0  0  0  0  0  0
    5.6682   -6.5372    0.0000 C   0  0  0  0  0  0  0  0  0  0  0  0
    6.5498   -7.7508    0.0000 C   0  0  0  0  0  0  0  0  0  0  0  0
    5.6682   -8.9643    0.0000 C   0  0  0  0  0  0  0  0  0  0  0  0
    4.2416   -8.5008    0.0000 C   0  0  0  0  0  0  0  0  0  0  0  0
    3.0280   -9.3824    0.0000 O   0  0  0  0  0  0  0  0  0  0  0  0
    1.6577   -8.7723    0.0000 C   0  0  0  0  0  0  0  0  0  0  0  0
    1.5009   -7.2805    0.0000 O   0  0  0  0  0  0  0  0  0  0  0  0
    0.4442   -9.6540    0.0000 N   0  0  0  0  0  0  0  0  0  0  0  0
   -0.9261   -9.0439    0.0000 C   0  0  0  0  0  0  0  0  0  0  0  0
   -1.0829   -7.5521    0.0000 N   0  0  0  0  0  0  0  0  0  0  0  0
   -2.4532   -6.9420    0.0000 N   0  0  0  0  0  0  0  0  0  0  0  0
   -3.6668   -7.8237    0.0000 N   0  0  0  0  0  0  0  0  0  0  0  0
   -3.5100   -9.3155    0.0000 N   0  0  0  0  0  0  0  0  0  0  0  0
   -2.1396   -9.9256    0.0000 N   0  0  0  0  0  0  0  0  0  0  0  0
    4.2416   -7.0008    0.0000 C   0  0  0  0  0  0  0  0  0  0  0  0
    3.0280   -6.1191    0.0000 O   0  0  0  0  0  0  0  0  0  0  0  0
    0.7500   -1.2990    0.0000 C   0  0  0  0  0  0  0  0  0  0  0  0
    1.5000    0.0000    0.0000 C   0  0  0  0  0  0  0  0  0  0  0  0
    0.7500    1.2990    0.0000 C   0  0  0  0  0  0  0  0  0  0  0  0
   -0.7500    1.2990    0.0000 C   0  0  0  0  0  0  0  0  0  0  0  0
   -1.5000    0.0000    0.0000 C   0  0  0  0  0  0  0  0  0  0  0  0
   -0.7500   -1.2990    0.0000 C   0  0  0  0  0  0  0  0  0  0  0  0
  1  2  1  0
  2  3  1  0
  3  4  2  0
  4  5  1  0
  5  6  1  0
  6  7  2  0
  6  8  1  0
  8  9  1  0
  9 10  2  0
 10 11  1  0
 11 12  2  0
 12 13  1  0
 13 14  1  0
 14 15  2  0
 15 16  1  0
 16 17  2  0
 17 18  1  0
 18 19  1  0
 19 20  2  0
 19 21  1  0
 21 22  1  0
 22 23  2  0
 23 24  1  0
 24 25  2  0
 25 26  1  0
 26 27  2  0
 17 28  1  0
 28 29  2  0
  5 30  1  0
 30 31  2  0
 31 32  1  0
 32 33  2  0
 33 34  1  0
 34 35  2  0
 35  2  1  0
 13  9  1  0
 28 14  1  0
 35 30  1  0
 27 22  1  0
M  END
>  <Title>  (1270) 
idABUXgen14

$$$$

     RDKit          2D

 13 13  0  0  0  0  0  0  0  0999 V2000
    8.2500   -3.8971    0.0000 C   0  0  0  0  0  0  0  0  0  0  0  0
    7.5000   -2.5981    0.0000 C   0  0  0  0  0  0  0  0  0  0  0  0
    6.0000   -2.5981    0.0000 C   0  0  0  0  0  0  0  0  0  0  0  0
    5.2500   -1.2990    0.0000 C   0  0  0  0  0  0  0  0  0  0  0  0
    6.0000    0.0000    0.0000 O   0  0  0  0  0  0  0  0  0  0  0  0
    3.7500   -1.2990    0.0000 N   0  0  0  0  0  0  0  0  0  0  0  0
    3.0000    0.0000    0.0000 C   0  0  0  0  0  0  0  0  0  0  0  0
    1.5000    0.0000    0.0000 C   0  0  0  0  0  0  0  0  0  0  0  0
    0.7500   -1.2990    0.0000 C   0  0  0  0  0  0  0  0  0  0  0  0
   -0.7500   -1.2990    0.0000 C   0  0  0  0  0  0  0  0  0  0  0  0
   -1.5000    0.0000    0.0000 C   0  0  0  0  0  0  0  0  0  0  0  0
   -0.7500    1.2990    0.0000 C   0  0  0  0  0  0  0  0  0  0  0  0
    0.7500    1.2990    0.0000 C   0  0  0  0  0  0  0  0  0  0  0  0
  1  2  1  0
  2  3  1  0
  3  4  1  0
  4  5  2  0
  4  6  1  0
  6  7  1  0
  7  8  1  0
  8  9  2  0
  9 10  1  0
 10 11  2  0
 11 12  1  0
 12 13  2  0
 13  8  1  0
M  END
>  <Title>  (1271) 
idABUYgen14

$$$$

     RDKit          2D

  7  7  0  0  0  0  0  0  0  0999 V2000
    3.0000    0.0000    0.0000 C   0  0  0  0  0  0  0  0  0  0  0  0
    1.5000    0.0000    0.0000 C   0  0  0  0  0  0  0  0  0  0  0  0
    0.7500   -1.2990    0.0000 N   0  0  0  0  0  0  0  0  0  0  0  0
   -0.7500   -1.2990    0.0000 N   0  0  0  0  0  0  0  0  0  0  0  0
   -1.5000    0.0000    0.0000 C   0  0  0  0  0  0  0  0  0  0  0  0
   -0.7500    1.2990    0.0000 N   0  0  0  0  0  0  0  0  0  0  0  0
    0.7500    1.2990    0.0000 N   0  0  0  0  0  0  0  0  0  0  0  0
  1  2  1  0
  2  3  2  0
  3  4  1  0
  4  5  1  0
  5  6  1  0
  6  7  1  0
  7  2  1  0
M  END
>  <Title>  (1272) 
idABUZgen14

$$$$

     RDKit          2D

 42 46  0  0  0  0  0  0  0  0999 V2000
   -4.2338   -8.2890    0.0000 C   0  0  0  0  0  0  0  0  0  0  0  0
   -3.0203   -7.4073    0.0000 C   0  0  0  0  0  0  0  0  0  0  0  0
   -1.6499   -8.0175    0.0000 O   0  0  0  0  0  0  0  0  0  0  0  0
   -3.1771   -5.9156    0.0000 N   0  0  0  0  0  0  0  0  0  0  0  0
   -1.9635   -5.0339    0.0000 C   0  0  0  0  0  0  0  0  0  0  0  0
   -0.7500   -5.9156    0.0000 C   0  0  0  0  0  0  0  0  0  0  0  0
    0.7500   -5.9156    0.0000 C   0  0  0  0  0  0  0  0  0  0  0  0
    1.9635   -5.0339    0.0000 C   0  0  0  0  0  0  0  0  0  0  0  0
    3.1771   -5.9156    0.0000 N   0  0  0  0  0  0  0  0  0  0  0  0
    3.0203   -7.4073    0.0000 C   0  0  0  0  0  0  0  0  0  0  0  0
    1.6499   -8.0175    0.0000 O   0  0  0  0  0  0  0  0  0  0  0  0
    4.2338   -8.2890    0.0000 C   0  0  0  0  0  0  0  0  0  0  0  0
    5.6604   -7.8255    0.0000 C   0  0  0  0  0  0  0  0  0  0  0  0
    6.5420   -9.0390    0.0000 C   0  0  0  0  0  0  0  0  0  0  0  0
    5.6604  -10.2525    0.0000 C   0  0  0  0  0  0  0  0  0  0  0  0
    6.1239  -11.6791    0.0000 C   0  0  0  0  0  0  0  0  0  0  0  0
    7.5911  -11.9910    0.0000 O   0  0  0  0  0  0  0  0  0  0  0  0
    5.1202  -12.7939    0.0000 N   0  0  0  0  0  0  0  0  0  0  0  0
    5.5837  -14.2204    0.0000 C   0  0  0  0  0  0  0  0  0  0  0  0
    4.5800  -15.3352    0.0000 N   0  0  0  0  0  0  0  0  0  0  0  0
    5.0436  -16.7617    0.0000 N   0  0  0  0  0  0  0  0  0  0  0  0
    6.5108  -17.0736    0.0000 N   0  0  0  0  0  0  0  0  0  0  0  0
    7.5145  -15.9589    0.0000 N   0  0  0  0  0  0  0  0  0  0  0  0
    7.0509  -14.5323    0.0000 N   0  0  0  0  0  0  0  0  0  0  0  0
    4.2338   -9.7890    0.0000 C   0  0  0  0  0  0  0  0  0  0  0  0
    3.0203  -10.6707    0.0000 O   0  0  0  0  0  0  0  0  0  0  0  0
    2.4271   -3.6073    0.0000 C   0  0  0  0  0  0  0  0  0  0  0  0
    3.9271   -3.6073    0.0000 O   0  0  0  0  0  0  0  0  0  0  0  0
    1.9635   -2.1807    0.0000 O   0  0  0  0  0  0  0  0  0  0  0  0
    0.7500   -1.2990    0.0000 C   0  0  0  0  0  0  0  0  0  0  0  0
    1.5000    0.0000    0.0000 C   0  0  0  0  0  0  0  0  0  0  0  0
    0.7500    1.2990    0.0000 C   0  0  0  0  0  0  0  0  0  0  0  0
   -0.7500    1.2990    0.0000 C   0  0  0  0  0  0  0  0  0  0  0  0
   -1.5000    0.0000    0.0000 C   0  0  0  0  0  0  0  0  0  0  0  0
   -0.7500   -1.2990    0.0000 C   0  0  0  0  0  0  0  0  0  0  0  0
   -1.9635   -2.1807    0.0000 C   0  0  0  0  0  0  0  0  0  0  0  0
   -2.9672   -1.0660    0.0000 C   0  0  0  0  0  0  0  0  0  0  0  0
   -4.4344   -1.3779    0.0000 C   0  0  0  0  0  0  0  0  0  0  0  0
   -4.8980   -2.8045    0.0000 C   0  0  0  0  0  0  0  0  0  0  0  0
   -6.3652   -3.1163    0.0000 O   0  0  0  0  0  0  0  0  0  0  0  0
   -3.8943   -3.9192    0.0000 C   0  0  0  0  0  0  0  0  0  0  0  0
   -2.4271   -3.6073    0.0000 C   0  0  0  0  0  0  0  0  0  0  0  0
  1  2  1  0
  2  3  2  0
  2  4  1  0
  4  5  1  0
  5  6  2  0
  6  7  1  0
  7  8  2  0
  8  9  1  0
  9 10  1  0
 10 11  2  0
 10 12  1  0
 12 13  1  0
 13 14  1  0
 14 15  1  0
 15 16  1  0
 16 17  2  0
 16 18  1  0
 18 19  1  0
 19 20  2  0
 20 21  1  0
 21 22  2  0
 22 23  1  0
 23 24  2  0
 15 25  1  0
 25 26  2  0
  8 27  1  0
 27 28  2  0
 27 29  1  0
 29 30  1  0
 30 31  2  0
 31 32  1  0
 32 33  2  0
 33 34  1  0
 34 35  2  0
 35 36  1  0
 36 37  2  0
 37 38  1  0
 38 39  2  0
 39 40  1  0
 39 41  1  0
 41 42  2  0
 42  5  1  0
 25 12  1  0
 35 30  1  0
 42 36  1  0
 24 19  1  0
M  END
>  <Title>  (1273) 
idABVAgen14

$$$$

     RDKit          2D

  6  5  0  0  0  0  0  0  0  0999 V2000
    0.0000    0.0000    0.0000 C   0  0  0  0  0  0  0  0  0  0  0  0
    1.2990    0.7500    0.0000 N   0  0  0  0  0  0  0  0  0  0  0  0
    2.5981   -0.0000    0.0000 C   0  0  0  0  0  0  0  0  0  0  0  0
    2.5981   -1.5000    0.0000 O   0  0  0  0  0  0  0  0  0  0  0  0
    3.8971    0.7500    0.0000 C   0  0  0  0  0  0  0  0  0  0  0  0
    5.1962   -0.0000    0.0000 O   0  0  0  0  0  0  0  0  0  0  0  0
  1  2  1  0
  2  3  1  0
  3  4  1  0
  3  5  1  0
  5  6  1  0
M  END
>  <Title>  (1274) 
idABVBgen14

$$$$

     RDKit          2D

 32 36  0  0  0  0  0  0  0  0999 V2000
   -1.8107   -3.8597    0.0000 C   0  0  0  0  0  0  0  0  0  0  0  0
   -0.7500   -2.7990    0.0000 C   0  0  0  0  0  0  0  0  0  0  0  0
    0.7500   -2.7990    0.0000 C   0  0  0  0  0  0  0  0  0  0  0  0
    1.8107   -3.8597    0.0000 C   0  0  0  0  0  0  0  0  0  0  0  0
    3.2595   -3.4715    0.0000 O   0  0  0  0  0  0  0  0  0  0  0  0
    1.4224   -5.3086    0.0000 N   0  0  0  0  0  0  0  0  0  0  0  0
    2.4831   -6.3692    0.0000 C   0  0  0  0  0  0  0  0  0  0  0  0
    3.9646   -6.1346    0.0000 N   0  0  0  0  0  0  0  0  0  0  0  0
    4.6456   -7.4711    0.0000 N   0  0  0  0  0  0  0  0  0  0  0  0
    3.5849   -8.5318    0.0000 N   0  0  0  0  0  0  0  0  0  0  0  0
    2.2484   -7.8508    0.0000 N   0  0  0  0  0  0  0  0  0  0  0  0
    0.9119   -8.5318    0.0000 C   0  0  0  0  0  0  0  0  0  0  0  0
    0.6773  -10.0133    0.0000 C   0  0  0  0  0  0  0  0  0  0  0  0
   -0.8043  -10.2479    0.0000 C   0  0  0  0  0  0  0  0  0  0  0  0
   -1.4852   -8.9114    0.0000 C   0  0  0  0  0  0  0  0  0  0  0  0
   -2.9668   -8.6768    0.0000 C   0  0  0  0  0  0  0  0  0  0  0  0
   -3.9108   -9.8425    0.0000 O   0  0  0  0  0  0  0  0  0  0  0  0
   -3.5043   -7.2764    0.0000 N   0  0  0  0  0  0  0  0  0  0  0  0
   -4.9859   -7.0418    0.0000 C   0  0  0  0  0  0  0  0  0  0  0  0
   -5.5234   -5.6414    0.0000 N   0  0  0  0  0  0  0  0  0  0  0  0
   -7.0049   -5.4067    0.0000 N   0  0  0  0  0  0  0  0  0  0  0  0
   -7.9489   -6.5725    0.0000 N   0  0  0  0  0  0  0  0  0  0  0  0
   -7.4114   -7.9728    0.0000 N   0  0  0  0  0  0  0  0  0  0  0  0
   -5.9298   -8.2075    0.0000 N   0  0  0  0  0  0  0  0  0  0  0  0
   -0.4246   -7.8508    0.0000 C   0  0  0  0  0  0  0  0  0  0  0  0
   -0.6592   -6.3692    0.0000 O   0  0  0  0  0  0  0  0  0  0  0  0
    0.7500   -1.2990    0.0000 C   0  0  0  0  0  0  0  0  0  0  0  0
    1.5000    0.0000    0.0000 C   0  0  0  0  0  0  0  0  0  0  0  0
    0.7500    1.2990    0.0000 C   0  0  0  0  0  0  0  0  0  0  0  0
   -0.7500    1.2990    0.0000 C   0  0  0  0  0  0  0  0  0  0  0  0
   -1.5000    0.0000    0.0000 C   0  0  0  0  0  0  0  0  0  0  0  0
   -0.7500   -1.2990    0.0000 C   0  0  0  0  0  0  0  0  0  0  0  0
  1  2  1  0
  2  3  2  0
  3  4  1  0
  4  5  2  0
  4  6  1  0
  6  7  1  0
  7  8  2  0
  8  9  1  0
  9 10  2  0
 10 11  1  0
 11 12  1  0
 12 13  2  0
 13 14  1  0
 14 15  2  0
 15 16  1  0
 16 17  2  0
 16 18  1  0
 18 19  1  0
 19 20  2  0
 20 21  1  0
 21 22  2  0
 22 23  1  0
 23 24  2  0
 15 25  1  0
 25 26  2  0
  3 27  1  0
 27 28  2  0
 28 29  1  0
 29 30  2  0
 30 31  1  0
 31 32  2  0
 32  2  1  0
 11  7  1  0
 25 12  1  0
 32 27  1  0
 24 19  1  0
M  END
>  <Title>  (1275) 
idABVCgen14

$$$$

     RDKit          2D

 14 15  0  0  0  0  0  0  0  0999 V2000
    3.3287    1.8373    0.0000 O   0  0  0  0  0  0  0  0  0  0  0  0
    2.3250    2.9520    0.0000 C   0  0  0  0  0  0  0  0  0  0  0  0
    0.8578    2.6401    0.0000 C   0  0  0  0  0  0  0  0  0  0  0  0
    0.3943    1.2135    0.0000 C   0  0  0  0  0  0  0  0  0  0  0  0
    1.2760    0.0000    0.0000 C   0  0  0  0  0  0  0  0  0  0  0  0
    0.3943   -1.2135    0.0000 C   0  0  0  0  0  0  0  0  0  0  0  0
   -1.0323   -0.7500    0.0000 C   0  0  0  0  0  0  0  0  0  0  0  0
   -1.0323    0.7500    0.0000 C   0  0  0  0  0  0  0  0  0  0  0  0
    2.7886    4.3786    0.0000 N   0  0  0  0  0  0  0  0  0  0  0  0
    4.2558    4.6904    0.0000 C   0  0  0  0  0  0  0  0  0  0  0  0
    4.8659    6.0607    0.0000 C   0  0  0  0  0  0  0  0  0  0  0  0
    6.3577    5.9040    0.0000 S   0  0  0  0  0  0  0  0  0  0  0  0
    6.6695    4.4367    0.0000 C   0  0  0  0  0  0  0  0  0  0  0  0
    5.3705    3.6867    0.0000 N   0  0  0  0  0  0  0  0  0  0  0  0
  1  2  1  0
  2  3  1  0
  3  4  1  0
  4  5  2  0
  5  6  1  0
  6  7  1  0
  7  8  2  0
  2  9  1  0
  9 10  1  0
 10 11  2  0
 11 12  1  0
 12 13  1  0
 13 14  2  0
  8  4  1  0
 14 10  1  0
M  END
>  <Title>  (1276) 
idABVDgen14

$$$$

     RDKit          2D

 28 31  0  0  0  0  0  0  0  0999 V2000
   -3.0000   -2.5981    0.0000 C   0  0  0  0  0  0  0  0  0  0  0  0
   -1.5000   -2.5981    0.0000 C   0  0  0  0  0  0  0  0  0  0  0  0
   -0.7500   -3.8971    0.0000 C   0  0  0  0  0  0  0  0  0  0  0  0
    0.7500   -3.8971    0.0000 C   0  0  0  0  0  0  0  0  0  0  0  0
    1.5000   -2.5981    0.0000 C   0  0  0  0  0  0  0  0  0  0  0  0
    3.0000   -2.5981    0.0000 C   0  0  0  0  0  0  0  0  0  0  0  0
    3.7500   -1.2990    0.0000 O   0  0  0  0  0  0  0  0  0  0  0  0
    3.7500   -3.8971    0.0000 N   0  0  0  0  0  0  0  0  0  0  0  0
    5.2500   -3.8971    0.0000 C   0  0  0  0  0  0  0  0  0  0  0  0
    6.1317   -2.6836    0.0000 N   0  0  0  0  0  0  0  0  0  0  0  0
    7.5583   -3.1471    0.0000 N   0  0  0  0  0  0  0  0  0  0  0  0
    7.5583   -4.6471    0.0000 N   0  0  0  0  0  0  0  0  0  0  0  0
    6.1317   -5.1106    0.0000 N   0  0  0  0  0  0  0  0  0  0  0  0
    5.6682   -6.5372    0.0000 C   0  0  0  0  0  0  0  0  0  0  0  0
    4.2009   -6.8491    0.0000 C   0  0  0  0  0  0  0  0  0  0  0  0
    3.7374   -8.2757    0.0000 C   0  0  0  0  0  0  0  0  0  0  0  0
    4.7411   -9.3904    0.0000 C   0  0  0  0  0  0  0  0  0  0  0  0
    4.2776  -10.8170    0.0000 O   0  0  0  0  0  0  0  0  0  0  0  0
    6.2083   -9.0785    0.0000 C   0  0  0  0  0  0  0  0  0  0  0  0
    6.6718   -7.6519    0.0000 C   0  0  0  0  0  0  0  0  0  0  0  0
    0.7500   -1.2990    0.0000 C   0  0  0  0  0  0  0  0  0  0  0  0
    1.5000    0.0000    0.0000 C   0  0  0  0  0  0  0  0  0  0  0  0
    0.7500    1.2990    0.0000 C   0  0  0  0  0  0  0  0  0  0  0  0
   -0.7500    1.2990    0.0000 C   0  0  0  0  0  0  0  0  0  0  0  0
   -1.5000    2.5981    0.0000 C   0  0  0  0  0  0  0  0  0  0  0  0
   -2.2500    3.8971    0.0000 N   0  0  0  0  0  0  0  0  0  0  0  0
   -1.5000    0.0000    0.0000 C   0  0  0  0  0  0  0  0  0  0  0  0
   -0.7500   -1.2990    0.0000 C   0  0  0  0  0  0  0  0  0  0  0  0
  1  2  1  0
  2  3  1  0
  3  4  2  0
  4  5  1  0
  5  6  1  0
  6  7  2  0
  6  8  1  0
  8  9  1  0
  9 10  2  0
 10 11  1  0
 11 12  2  0
 12 13  1  0
 13 14  1  0
 14 15  2  0
 15 16  1  0
 16 17  2  0
 17 18  1  0
 17 19  1  0
 19 20  2  0
  5 21  1  0
 21 22  2  0
 22 23  1  0
 23 24  2  0
 24 25  1  0
 25 26  3  0
 24 27  1  0
 27 28  2  0
 28  2  1  0
 13  9  1  0
 20 14  1  0
 28 21  1  0
M  END
>  <Title>  (1277) 
idABVEgen14

$$$$

     RDKit          2D

 21 23  0  0  0  0  0  0  0  0999 V2000
   -3.7860   -5.5823    0.0000 C   0  0  0  0  0  0  0  0  0  0  0  0
   -2.4215   -4.9592    0.0000 C   0  0  0  0  0  0  0  0  0  0  0  0
   -2.6350   -3.4744    0.0000 N   0  0  0  0  0  0  0  0  0  0  0  0
   -2.0119   -2.1100    0.0000 C   0  0  0  0  0  0  0  0  0  0  0  0
   -2.2724   -0.6328    0.0000 C   0  0  0  0  0  0  0  0  0  0  0  0
   -1.5224    0.6663    0.0000 C   0  0  0  0  0  0  0  0  0  0  0  0
   -0.1128    1.1793    0.0000 C   0  0  0  0  0  0  0  0  0  0  0  0
    1.2967    0.6663    0.0000 C   0  0  0  0  0  0  0  0  0  0  0  0
    2.0467   -0.6328    0.0000 C   0  0  0  0  0  0  0  0  0  0  0  0
    2.0119   -2.1100    0.0000 C   0  0  0  0  0  0  0  0  0  0  0  0
    2.6350   -3.4744    0.0000 C   0  0  0  0  0  0  0  0  0  0  0  0
    2.4215   -4.9592    0.0000 C   0  0  0  0  0  0  0  0  0  0  0  0
    1.4392   -6.0928    0.0000 N   0  0  0  0  0  0  0  0  0  0  0  0
    0.0000   -6.5154    0.0000 N   0  0  0  0  0  0  0  0  0  0  0  0
   -1.4392   -6.0928    0.0000 N   0  0  0  0  0  0  0  0  0  0  0  0
    0.7500   -1.2990    0.0000 C   0  0  0  0  0  0  0  0  0  0  0  0
    0.2930   -1.2377    0.0000 C   0  0  0  0  0  0  0  0  0  0  0  0
    0.5575   -1.2051    0.0000 C   0  0  0  0  0  0  0  0  0  0  0  0
   -0.5575   -1.2051    0.0000 C   0  0  0  0  0  0  0  0  0  0  0  0
   -0.2930   -1.2377    0.0000 C   0  0  0  0  0  0  0  0  0  0  0  0
   -0.7500   -1.2990    0.0000 C   0  0  0  0  0  0  0  0  0  0  0  0
  1  2  1  0
  2  3  2  0
  3  4  1  0
  4  5  1  0
  5  6  2  0
  6  7  1  0
  7  8  2  0
  8  9  1  0
  9 10  2  0
 10 11  1  0
 11 12  1  0
 12 13  2  0
 13 14  1  0
 14 15  2  0
 10 16  1  0
 16 17  2  0
 17 18  1  0
 18 19  2  0
 19 20  1  0
 20 21  2  0
 15  2  1  0
 21 16  1  0
 21  4  1  0
M  END
>  <Title>  (1278) 
idABVFgen14

$$$$

     RDKit          2D

 35 39  0  0  0  0  0  0  0  0999 V2000
    8.2500    3.8971    0.0000 C   0  0  0  0  0  0  0  0  0  0  0  0
    7.5000    2.5981    0.0000 C   0  0  0  0  0  0  0  0  0  0  0  0
    8.2500    1.2990    0.0000 C   0  0  0  0  0  0  0  0  0  0  0  0
    7.5000    0.0000    0.0000 C   0  0  0  0  0  0  0  0  0  0  0  0
    6.0000    0.0000    0.0000 C   0  0  0  0  0  0  0  0  0  0  0  0
    5.2500   -1.2990    0.0000 O   0  0  0  0  0  0  0  0  0  0  0  0
    6.0000   -2.5981    0.0000 C   0  0  0  0  0  0  0  0  0  0  0  0
    7.5000   -2.5981    0.0000 O   0  0  0  0  0  0  0  0  0  0  0  0
    5.2500   -3.8971    0.0000 N   0  0  0  0  0  0  0  0  0  0  0  0
    6.0000   -5.1962    0.0000 C   0  0  0  0  0  0  0  0  0  0  0  0
    7.4918   -5.3529    0.0000 N   0  0  0  0  0  0  0  0  0  0  0  0
    7.8037   -6.8202    0.0000 N   0  0  0  0  0  0  0  0  0  0  0  0
    6.5046   -7.5702    0.0000 N   0  0  0  0  0  0  0  0  0  0  0  0
    5.3899   -6.5665    0.0000 N   0  0  0  0  0  0  0  0  0  0  0  0
    3.9227   -6.8783    0.0000 C   0  0  0  0  0  0  0  0  0  0  0  0
    2.8080   -5.8746    0.0000 C   0  0  0  0  0  0  0  0  0  0  0  0
    1.5089   -6.6246    0.0000 C   0  0  0  0  0  0  0  0  0  0  0  0
    1.8208   -8.0919    0.0000 C   0  0  0  0  0  0  0  0  0  0  0  0
    0.8171   -9.2066    0.0000 C   0  0  0  0  0  0  0  0  0  0  0  0
    1.2806  -10.6332    0.0000 O   0  0  0  0  0  0  0  0  0  0  0  0
   -0.6501   -8.8947    0.0000 N   0  0  0  0  0  0  0  0  0  0  0  0
   -1.6538  -10.0094    0.0000 C   0  0  0  0  0  0  0  0  0  0  0  0
   -1.1903  -11.4360    0.0000 N   0  0  0  0  0  0  0  0  0  0  0  0
   -2.1940  -12.5507    0.0000 N   0  0  0  0  0  0  0  0  0  0  0  0
   -3.6612  -12.2389    0.0000 N   0  0  0  0  0  0  0  0  0  0  0  0
   -4.1247  -10.8123    0.0000 N   0  0  0  0  0  0  0  0  0  0  0  0
   -3.1210   -9.6976    0.0000 N   0  0  0  0  0  0  0  0  0  0  0  0
    3.3126   -8.2487    0.0000 C   0  0  0  0  0  0  0  0  0  0  0  0
    4.0626   -9.5477    0.0000 O   0  0  0  0  0  0  0  0  0  0  0  0
    5.2500    1.2990    0.0000 C   0  0  0  0  0  0  0  0  0  0  0  0
    3.7500    1.2990    0.0000 C   0  0  0  0  0  0  0  0  0  0  0  0
    3.0000    2.5981    0.0000 C   0  0  0  0  0  0  0  0  0  0  0  0
    3.7500    3.8971    0.0000 C   0  0  0  0  0  0  0  0  0  0  0  0
    5.2500    3.8971    0.0000 C   0  0  0  0  0  0  0  0  0  0  0  0
    6.0000    2.5981    0.0000 C   0  0  0  0  0  0  0  0  0  0  0  0
  1  2  1  0
  2  3  2  0
  3  4  1  0
  4  5  2  0
  5  6  1  0
  6  7  1  0
  7  8  2  0
  7  9  1  0
  9 10  1  0
 10 11  2  0
 11 12  1  0
 12 13  2  0
 13 14  1  0
 14 15  1  0
 15 16  2  0
 16 17  1  0
 17 18  2  0
 18 19  1  0
 19 20  2  0
 19 21  1  0
 21 22  1  0
 22 23  2  0
 23 24  1  0
 24 25  2  0
 25 26  1  0
 26 27  2  0
 18 28  1  0
 28 29  2  0
  5 30  1  0
 30 31  2  0
 31 32  1  0
 32 33  2  0
 33 34  1  0
 34 35  2  0
 35  2  1  0
 14 10  1  0
 28 15  1  0
 35 30  1  0
 27 22  1  0
M  END
>  <Title>  (1279) 
idABVGgen14

$$$$

     RDKit          2D

 41 46  0  0  0  0  0  0  0  0999 V2000
   -3.1771   -5.9156    0.0000 C   0  0  0  0  0  0  0  0  0  0  0  0
   -1.9635   -5.0339    0.0000 C   0  0  0  0  0  0  0  0  0  0  0  0
   -0.7500   -5.9156    0.0000 C   0  0  0  0  0  0  0  0  0  0  0  0
    0.7500   -5.9156    0.0000 C   0  0  0  0  0  0  0  0  0  0  0  0
    1.9635   -5.0339    0.0000 C   0  0  0  0  0  0  0  0  0  0  0  0
    2.4271   -3.6073    0.0000 C   0  0  0  0  0  0  0  0  0  0  0  0
    1.9635   -2.1807    0.0000 C   0  0  0  0  0  0  0  0  0  0  0  0
    3.1771   -1.2990    0.0000 C   0  0  0  0  0  0  0  0  0  0  0  0
    3.0203    0.1927    0.0000 O   0  0  0  0  0  0  0  0  0  0  0  0
    4.5474   -1.9091    0.0000 N   0  0  0  0  0  0  0  0  0  0  0  0
    5.7609   -1.0275    0.0000 C   0  0  0  0  0  0  0  0  0  0  0  0
    5.7609    0.4725    0.0000 N   0  0  0  0  0  0  0  0  0  0  0  0
    7.1875    0.9361    0.0000 N   0  0  0  0  0  0  0  0  0  0  0  0
    8.0692   -0.2775    0.0000 N   0  0  0  0  0  0  0  0  0  0  0  0
    7.1875   -1.4910    0.0000 N   0  0  0  0  0  0  0  0  0  0  0  0
    7.6510   -2.9176    0.0000 N   0  0  0  0  0  0  0  0  0  0  0  0
    6.9700   -4.2541    0.0000 C   0  0  0  0  0  0  0  0  0  0  0  0
    8.3065   -4.9351    0.0000 C   0  0  0  0  0  0  0  0  0  0  0  0
    8.7701   -6.3617    0.0000 C   0  0  0  0  0  0  0  0  0  0  0  0
   10.2373   -6.6735    0.0000 O   0  0  0  0  0  0  0  0  0  0  0  0
    7.7664   -7.4764    0.0000 N   0  0  0  0  0  0  0  0  0  0  0  0
    8.2299   -8.9030    0.0000 C   0  0  0  0  0  0  0  0  0  0  0  0
    7.2262  -10.0177    0.0000 N   0  0  0  0  0  0  0  0  0  0  0  0
    7.6897  -11.4443    0.0000 N   0  0  0  0  0  0  0  0  0  0  0  0
    9.1569  -11.7561    0.0000 N   0  0  0  0  0  0  0  0  0  0  0  0
   10.1606  -10.6414    0.0000 N   0  0  0  0  0  0  0  0  0  0  0  0
    9.6971   -9.2148    0.0000 N   0  0  0  0  0  0  0  0  0  0  0  0
    8.9875   -3.5986    0.0000 C   0  0  0  0  0  0  0  0  0  0  0  0
   10.4141   -3.1350    0.0000 O   0  0  0  0  0  0  0  0  0  0  0  0
    0.7500   -1.2990    0.0000 C   0  0  0  0  0  0  0  0  0  0  0  0
    1.5000    0.0000    0.0000 C   0  0  0  0  0  0  0  0  0  0  0  0
    0.7500    1.2990    0.0000 C   0  0  0  0  0  0  0  0  0  0  0  0
   -0.7500    1.2990    0.0000 C   0  0  0  0  0  0  0  0  0  0  0  0
   -1.5000    0.0000    0.0000 C   0  0  0  0  0  0  0  0  0  0  0  0
   -0.7500   -1.2990    0.0000 C   0  0  0  0  0  0  0  0  0  0  0  0
   -1.9635   -2.1807    0.0000 C   0  0  0  0  0  0  0  0  0  0  0  0
   -2.9672   -1.0660    0.0000 C   0  0  0  0  0  0  0  0  0  0  0  0
   -4.4344   -1.3779    0.0000 C   0  0  0  0  0  0  0  0  0  0  0  0
   -4.8980   -2.8045    0.0000 C   0  0  0  0  0  0  0  0  0  0  0  0
   -3.8943   -3.9192    0.0000 C   0  0  0  0  0  0  0  0  0  0  0  0
   -2.4271   -3.6073    0.0000 C   0  0  0  0  0  0  0  0  0  0  0  0
  1  2  1  0
  2  3  1  0
  3  4  2  0
  4  5  1  0
  5  6  1  0
  6  7  1  0
  7  8  1  0
  8  9  2  0
  8 10  1  0
 10 11  1  0
 11 12  2  0
 12 13  1  0
 13 14  2  0
 14 15  1  0
 15 16  1  0
 16 17  1  0
 17 18  2  0
 18 19  1  0
 19 20  2  0
 19 21  1  0
 21 22  1  0
 22 23  2  0
 23 24  1  0
 24 25  2  0
 25 26  1  0
 26 27  2  0
 18 28  1  0
 28 29  2  0
  7 30  1  0
 30 31  2  0
 31 32  1  0
 32 33  2  0
 33 34  1  0
 34 35  2  0
 35 36  1  0
 36 37  2  0
 37 38  1  0
 38 39  2  0
 39 40  1  0
 40 41  2  0
 41  2  1  0
 15 11  1  0
 28 16  1  0
 35 30  1  0
 41 36  1  0
 27 22  1  0
M  END
>  <Title>  (1280) 
idABVHgen14

$$$$

     RDKit          2D

  7  6  0  0  0  0  0  0  0  0999 V2000
    0.0000    0.0000    0.0000 C   0  0  0  0  0  0  0  0  0  0  0  0
    1.2990    0.7500    0.0000 C   0  0  0  0  0  0  0  0  0  0  0  0
    2.5981   -0.0000    0.0000 C   0  0  0  0  0  0  0  0  0  0  0  0
    3.8971    0.7500    0.0000 C   0  0  0  0  0  0  0  0  0  0  0  0
    5.1962   -0.0000    0.0000 C   0  0  0  0  0  0  0  0  0  0  0  0
    6.4952    0.7500    0.0000 C   0  0  0  0  0  0  0  0  0  0  0  0
    5.1962   -1.5000    0.0000 C   0  0  0  0  0  0  0  0  0  0  0  0
  1  2  2  0
  2  3  1  0
  3  4  1  0
  4  5  1  0
  5  6  1  0
  5  7  1  0
M  END
>  <Title>  (1281) 
idABVIgen14

$$$$

     RDKit          2D

  5  4  0  0  0  0  0  0  0  0999 V2000
    0.0000    0.0000    0.0000 C   0  0  0  0  0  0  0  0  0  0  0  0
    1.2990    0.7500    0.0000 C   0  0  0  0  0  0  0  0  0  0  0  0
    2.5981   -0.0000    0.0000 C   0  0  0  0  0  0  0  0  0  0  0  0
    3.8971    0.7500    0.0000 O   0  0  0  0  0  0  0  0  0  0  0  0
    5.1962   -0.0000    0.0000 C   0  0  0  0  0  0  0  0  0  0  0  0
  1  2  1  0
  2  3  1  0
  3  4  1  0
  4  5  1  0
M  END
>  <Title>  (1282) 
idABVJgen14

$$$$

     RDKit          2D

 14 14  0  0  0  0  0  0  0  0999 V2000
    8.2500   -3.8971    0.0000 C   0  0  0  0  0  0  0  0  0  0  0  0
    7.5000   -2.5981    0.0000 C   0  0  0  0  0  0  0  0  0  0  0  0
    8.2500   -1.2990    0.0000 C   0  0  0  0  0  0  0  0  0  0  0  0
    6.0000   -2.5981    0.0000 C   0  0  0  0  0  0  0  0  0  0  0  0
    5.2500   -1.2990    0.0000 C   0  0  0  0  0  0  0  0  0  0  0  0
    6.0000    0.0000    0.0000 O   0  0  0  0  0  0  0  0  0  0  0  0
    3.7500   -1.2990    0.0000 N   0  0  0  0  0  0  0  0  0  0  0  0
    3.0000    0.0000    0.0000 C   0  0  0  0  0  0  0  0  0  0  0  0
    1.5000    0.0000    0.0000 C   0  0  0  0  0  0  0  0  0  0  0  0
    0.7500   -1.2990    0.0000 C   0  0  0  0  0  0  0  0  0  0  0  0
   -0.7500   -1.2990    0.0000 C   0  0  0  0  0  0  0  0  0  0  0  0
   -1.5000    0.0000    0.0000 C   0  0  0  0  0  0  0  0  0  0  0  0
   -0.7500    1.2990    0.0000 N   0  0  0  0  0  0  0  0  0  0  0  0
    0.7500    1.2990    0.0000 C   0  0  0  0  0  0  0  0  0  0  0  0
  1  2  1  0
  2  3  1  0
  2  4  1  0
  4  5  1  0
  5  6  2  0
  5  7  1  0
  7  8  1  0
  8  9  1  0
  9 10  2  0
 10 11  1  0
 11 12  2  0
 12 13  1  0
 13 14  2  0
 14  9  1  0
M  END
>  <Title>  (1283) 
idABVKgen14

$$$$

     RDKit          2D

  5  4  0  0  0  0  0  0  0  0999 V2000
    0.0000    0.0000    0.0000 C   0  0  0  0  0  0  0  0  0  0  0  0
    1.2990    0.7500    0.0000 C   0  0  0  0  0  0  0  0  0  0  0  0
    2.5981    1.5000    0.0000 C   0  0  0  0  0  0  0  0  0  0  0  0
    3.8971    2.2500    0.0000 C   0  0  0  0  0  0  0  0  0  0  0  0
    5.1962    1.5000    0.0000 C   0  0  0  0  0  0  0  0  0  0  0  0
  1  2  1  0
  2  3  3  0
  3  4  1  0
  4  5  1  0
M  END
>  <Title>  (1284) 
idABVLgen14

$$$$

     RDKit          2D

 39 43  0  0  0  0  0  0  0  0999 V2000
    8.9217  -11.0843    0.0000 C   0  0  0  0  0  0  0  0  0  0  0  0
    8.0085   -9.8942    0.0000 C   0  0  0  0  0  0  0  0  0  0  0  0
    6.5597  -10.2825    0.0000 C   0  0  0  0  0  0  0  0  0  0  0  0
    5.2606   -9.5325    0.0000 C   0  0  0  0  0  0  0  0  0  0  0  0
    4.8724   -8.0836    0.0000 C   0  0  0  0  0  0  0  0  0  0  0  0
    3.3852   -7.8878    0.0000 O   0  0  0  0  0  0  0  0  0  0  0  0
    2.4721   -9.0778    0.0000 C   0  0  0  0  0  0  0  0  0  0  0  0
    3.0461  -10.4636    0.0000 O   0  0  0  0  0  0  0  0  0  0  0  0
    0.9849   -8.8820    0.0000 N   0  0  0  0  0  0  0  0  0  0  0  0
    0.0718  -10.0721    0.0000 C   0  0  0  0  0  0  0  0  0  0  0  0
    0.4978  -11.5103    0.0000 N   0  0  0  0  0  0  0  0  0  0  0  0
   -0.7384  -12.3599    0.0000 N   0  0  0  0  0  0  0  0  0  0  0  0
   -1.9284  -11.4468    0.0000 N   0  0  0  0  0  0  0  0  0  0  0  0
   -1.4277  -10.0328    0.0000 N   0  0  0  0  0  0  0  0  0  0  0  0
   -2.2773   -8.7966    0.0000 N   0  0  0  0  0  0  0  0  0  0  0  0
   -1.7766   -7.3826    0.0000 C   0  0  0  0  0  0  0  0  0  0  0  0
   -2.9666   -6.4695    0.0000 C   0  0  0  0  0  0  0  0  0  0  0  0
   -4.2028   -7.3191    0.0000 C   0  0  0  0  0  0  0  0  0  0  0  0
   -5.6168   -6.8184    0.0000 C   0  0  0  0  0  0  0  0  0  0  0  0
   -6.7574   -7.7926    0.0000 O   0  0  0  0  0  0  0  0  0  0  0  0
   -5.8902   -5.3435    0.0000 N   0  0  0  0  0  0  0  0  0  0  0  0
   -7.3041   -4.8428    0.0000 C   0  0  0  0  0  0  0  0  0  0  0  0
   -8.4447   -5.8170    0.0000 N   0  0  0  0  0  0  0  0  0  0  0  0
   -9.8587   -5.3163    0.0000 N   0  0  0  0  0  0  0  0  0  0  0  0
  -10.1320   -3.8414    0.0000 N   0  0  0  0  0  0  0  0  0  0  0  0
   -8.9914   -2.8672    0.0000 N   0  0  0  0  0  0  0  0  0  0  0  0
   -7.5775   -3.3679    0.0000 N   0  0  0  0  0  0  0  0  0  0  0  0
   -3.7768   -8.7573    0.0000 C   0  0  0  0  0  0  0  0  0  0  0  0
   -4.6900   -9.9474    0.0000 O   0  0  0  0  0  0  0  0  0  0  0  0
    5.6224   -6.7845    0.0000 C   0  0  0  0  0  0  0  0  0  0  0  0
    4.7092   -5.5945    0.0000 O   0  0  0  0  0  0  0  0  0  0  0  0
    7.0713   -6.3963    0.0000 O   0  0  0  0  0  0  0  0  0  0  0  0
    8.3703   -7.1463    0.0000 C   0  0  0  0  0  0  0  0  0  0  0  0
    9.4310   -6.0856    0.0000 C   0  0  0  0  0  0  0  0  0  0  0  0
   10.8799   -6.4739    0.0000 C   0  0  0  0  0  0  0  0  0  0  0  0
   11.2681   -7.9228    0.0000 C   0  0  0  0  0  0  0  0  0  0  0  0
   12.7170   -8.3110    0.0000 O   0  0  0  0  0  0  0  0  0  0  0  0
   10.2074   -8.9834    0.0000 C   0  0  0  0  0  0  0  0  0  0  0  0
    8.7585   -8.5952    0.0000 C   0  0  0  0  0  0  0  0  0  0  0  0
  1  2  1  0
  2  3  1  0
  3  4  2  0
  4  5  1  0
  5  6  1  0
  6  7  1  0
  7  8  2  0
  7  9  1  0
  9 10  1  0
 10 11  2  0
 11 12  1  0
 12 13  2  0
 13 14  1  0
 14 15  1  0
 15 16  1  0
 16 17  1  0
 17 18  1  0
 18 19  1  0
 19 20  2  0
 19 21  1  0
 21 22  1  0
 22 23  2  0
 23 24  1  0
 24 25  2  0
 25 26  1  0
 26 27  2  0
 18 28  1  0
 28 29  2  0
  5 30  1  0
 30 31  2  0
 30 32  1  0
 32 33  1  0
 33 34  2  0
 34 35  1  0
 35 36  2  0
 36 37  1  0
 36 38  1  0
 38 39  2  0
 39  2  1  0
 14 10  1  0
 28 15  1  0
 39 33  1  0
 27 22  1  0
M  END
>  <Title>  (1285) 
idABVMgen14

$$$$

     RDKit          2D

 38 42  0  0  0  0  0  0  0  0999 V2000
   -3.1771   -1.2990    0.0000 C   0  0  0  0  0  0  0  0  0  0  0  0
   -1.9635   -2.1807    0.0000 C   0  0  0  0  0  0  0  0  0  0  0  0
   -2.4271   -3.6073    0.0000 C   0  0  0  0  0  0  0  0  0  0  0  0
   -1.9635   -5.0339    0.0000 C   0  0  0  0  0  0  0  0  0  0  0  0
   -0.7500   -5.9156    0.0000 C   0  0  0  0  0  0  0  0  0  0  0  0
    0.7500   -5.9156    0.0000 C   0  0  0  0  0  0  0  0  0  0  0  0
    1.9635   -5.0339    0.0000 C   0  0  0  0  0  0  0  0  0  0  0  0
    2.4271   -3.6073    0.0000 C   0  0  0  0  0  0  0  0  0  0  0  0
    1.9635   -2.1807    0.0000 C   0  0  0  0  0  0  0  0  0  0  0  0
    3.1771   -1.2990    0.0000 C   0  0  0  0  0  0  0  0  0  0  0  0
    3.0203    0.1927    0.0000 O   0  0  0  0  0  0  0  0  0  0  0  0
    4.5474   -1.9091    0.0000 N   0  0  0  0  0  0  0  0  0  0  0  0
    5.7609   -1.0275    0.0000 C   0  0  0  0  0  0  0  0  0  0  0  0
    5.7609    0.4725    0.0000 N   0  0  0  0  0  0  0  0  0  0  0  0
    7.1875    0.9361    0.0000 N   0  0  0  0  0  0  0  0  0  0  0  0
    8.0692   -0.2775    0.0000 N   0  0  0  0  0  0  0  0  0  0  0  0
    7.1875   -1.4910    0.0000 N   0  0  0  0  0  0  0  0  0  0  0  0
    7.6510   -2.9176    0.0000 C   0  0  0  0  0  0  0  0  0  0  0  0
    9.0776   -3.3811    0.0000 C   0  0  0  0  0  0  0  0  0  0  0  0
    9.0776   -4.8811    0.0000 C   0  0  0  0  0  0  0  0  0  0  0  0
    7.6510   -5.3446    0.0000 C   0  0  0  0  0  0  0  0  0  0  0  0
    7.1875   -6.7712    0.0000 C   0  0  0  0  0  0  0  0  0  0  0  0
    8.1912   -7.8859    0.0000 O   0  0  0  0  0  0  0  0  0  0  0  0
    5.7203   -7.0831    0.0000 N   0  0  0  0  0  0  0  0  0  0  0  0
    5.2567   -8.5097    0.0000 C   0  0  0  0  0  0  0  0  0  0  0  0
    3.7895   -8.8215    0.0000 N   0  0  0  0  0  0  0  0  0  0  0  0
    3.3260  -10.2481    0.0000 N   0  0  0  0  0  0  0  0  0  0  0  0
    4.3297  -11.3628    0.0000 N   0  0  0  0  0  0  0  0  0  0  0  0
    5.7969  -11.0510    0.0000 N   0  0  0  0  0  0  0  0  0  0  0  0
    6.2604   -9.6244    0.0000 N   0  0  0  0  0  0  0  0  0  0  0  0
    6.7693   -4.1311    0.0000 C   0  0  0  0  0  0  0  0  0  0  0  0
    5.2693   -4.1311    0.0000 O   0  0  0  0  0  0  0  0  0  0  0  0
    0.7500   -1.2990    0.0000 C   0  0  0  0  0  0  0  0  0  0  0  0
    1.5000    0.0000    0.0000 C   0  0  0  0  0  0  0  0  0  0  0  0
    0.7500    1.2990    0.0000 C   0  0  0  0  0  0  0  0  0  0  0  0
   -0.7500    1.2990    0.0000 C   0  0  0  0  0  0  0  0  0  0  0  0
   -1.5000    0.0000    0.0000 C   0  0  0  0  0  0  0  0  0  0  0  0
   -0.7500   -1.2990    0.0000 C   0  0  0  0  0  0  0  0  0  0  0  0
  1  2  1  0
  2  3  1  0
  3  4  1  0
  4  5  1  0
  5  6  1  0
  6  7  1  0
  7  8  1  0
  8  9  1  0
  9 10  1  0
 10 11  2  0
 10 12  1  0
 12 13  1  0
 13 14  2  0
 14 15  1  0
 15 16  2  0
 16 17  1  0
 17 18  1  0
 18 19  2  0
 19 20  1  0
 20 21  2  0
 21 22  1  0
 22 23  2  0
 22 24  1  0
 24 25  1  0
 25 26  2  0
 26 27  1  0
 27 28  2  0
 28 29  1  0
 29 30  2  0
 21 31  1  0
 31 32  2  0
  9 33  1  0
 33 34  2  0
 34 35  1  0
 35 36  2  0
 36 37  1  0
 37 38  2  0
 38  2  1  0
 17 13  1  0
 31 18  1  0
 38 33  1  0
 30 25  1  0
M  END
>  <Title>  (1286) 
idABVNgen14

$$$$

     RDKit          2D

 14 14  0  0  0  0  0  0  0  0999 V2000
    9.9786   -3.8971    0.0000 C   0  0  0  0  0  0  0  0  0  0  0  0
    8.4786   -3.8971    0.0000 C   0  0  0  0  0  0  0  0  0  0  0  0
    7.7286   -2.5981    0.0000 C   0  0  0  0  0  0  0  0  0  0  0  0
    6.2286   -2.5981    0.0000 C   0  0  0  0  0  0  0  0  0  0  0  0
    5.4786   -1.2990    0.0000 C   0  0  0  0  0  0  0  0  0  0  0  0
    3.9786   -1.2990    0.0000 C   0  0  0  0  0  0  0  0  0  0  0  0
    3.2286   -0.0000    0.0000 C   0  0  0  0  0  0  0  0  0  0  0  0
    1.7286    0.0000    0.0000 C   0  0  0  0  0  0  0  0  0  0  0  0
    1.0777    1.3515    0.0000 C   0  0  0  0  0  0  0  0  0  0  0  0
   -0.3846    1.6852    0.0000 S   0  0  0  0  0  0  0  0  0  0  0  0
   -1.5574    0.7500    0.0000 C   0  0  0  0  0  0  0  0  0  0  0  0
   -1.5574   -0.7500    0.0000 C   0  0  0  0  0  0  0  0  0  0  0  0
   -0.3846   -1.6852    0.0000 C   0  0  0  0  0  0  0  0  0  0  0  0
    1.0777   -1.3515    0.0000 C   0  0  0  0  0  0  0  0  0  0  0  0
  1  2  1  0
  2  3  1  0
  3  4  2  3
  4  5  1  0
  5  6  1  0
  6  7  2  3
  7  8  1  0
  8  9  2  0
  9 10  1  0
 10 11  1  0
 11 12  1  0
 12 13  1  0
 13 14  1  0
 14  8  1  0
M  END
>  <Title>  (1287) 
idABVOgen14

$$$$

     RDKit          2D

 38 42  0  0  0  0  0  0  0  0999 V2000
   -5.7723   -2.1248    0.0000 C   0  0  0  0  0  0  0  0  0  0  0  0
   -4.3865   -2.6988    0.0000 C   0  0  0  0  0  0  0  0  0  0  0  0
   -3.1965   -1.7857    0.0000 C   0  0  0  0  0  0  0  0  0  0  0  0
   -1.8107   -2.3597    0.0000 C   0  0  0  0  0  0  0  0  0  0  0  0
   -1.8107   -3.8597    0.0000 C   0  0  0  0  0  0  0  0  0  0  0  0
   -0.7500   -4.9204    0.0000 C   0  0  0  0  0  0  0  0  0  0  0  0
    0.7500   -4.9204    0.0000 C   0  0  0  0  0  0  0  0  0  0  0  0
    1.8107   -3.8597    0.0000 C   0  0  0  0  0  0  0  0  0  0  0  0
    1.8107   -2.3597    0.0000 C   0  0  0  0  0  0  0  0  0  0  0  0
    3.1965   -1.7857    0.0000 C   0  0  0  0  0  0  0  0  0  0  0  0
    3.3923   -0.2985    0.0000 O   0  0  0  0  0  0  0  0  0  0  0  0
    4.3865   -2.6988    0.0000 N   0  0  0  0  0  0  0  0  0  0  0  0
    5.7723   -2.1248    0.0000 C   0  0  0  0  0  0  0  0  0  0  0  0
    6.1225   -0.6662    0.0000 N   0  0  0  0  0  0  0  0  0  0  0  0
    7.6179   -0.5485    0.0000 N   0  0  0  0  0  0  0  0  0  0  0  0
    8.1919   -1.9344    0.0000 N   0  0  0  0  0  0  0  0  0  0  0  0
    7.0513   -2.9085    0.0000 N   0  0  0  0  0  0  0  0  0  0  0  0
    7.1690   -4.4039    0.0000 N   0  0  0  0  0  0  0  0  0  0  0  0
    8.4479   -5.1877    0.0000 C   0  0  0  0  0  0  0  0  0  0  0  0
    8.0978   -6.6462    0.0000 C   0  0  0  0  0  0  0  0  0  0  0  0
    6.6024   -6.7639    0.0000 C   0  0  0  0  0  0  0  0  0  0  0  0
    5.8186   -8.0429    0.0000 C   0  0  0  0  0  0  0  0  0  0  0  0
    6.5344   -9.3611    0.0000 O   0  0  0  0  0  0  0  0  0  0  0  0
    4.3192   -8.0036    0.0000 N   0  0  0  0  0  0  0  0  0  0  0  0
    3.5354   -9.2826    0.0000 C   0  0  0  0  0  0  0  0  0  0  0  0
    2.0359   -9.2433    0.0000 N   0  0  0  0  0  0  0  0  0  0  0  0
    1.2522  -10.5223    0.0000 N   0  0  0  0  0  0  0  0  0  0  0  0
    1.9679  -11.8405    0.0000 N   0  0  0  0  0  0  0  0  0  0  0  0
    3.4674  -11.8797    0.0000 N   0  0  0  0  0  0  0  0  0  0  0  0
    4.2512  -10.6008    0.0000 N   0  0  0  0  0  0  0  0  0  0  0  0
    6.0284   -5.3781    0.0000 C   0  0  0  0  0  0  0  0  0  0  0  0
    4.5698   -5.0279    0.0000 O   0  0  0  0  0  0  0  0  0  0  0  0
    0.7500   -1.2990    0.0000 C   0  0  0  0  0  0  0  0  0  0  0  0
    1.5000    0.0000    0.0000 C   0  0  0  0  0  0  0  0  0  0  0  0
    0.7500    1.2990    0.0000 C   0  0  0  0  0  0  0  0  0  0  0  0
   -0.7500    1.2990    0.0000 C   0  0  0  0  0  0  0  0  0  0  0  0
   -1.5000    0.0000    0.0000 C   0  0  0  0  0  0  0  0  0  0  0  0
   -0.7500   -1.2990    0.0000 C   0  0  0  0  0  0  0  0  0  0  0  0
  1  2  1  0
  2  3  1  0
  3  4  1  0
  4  5  2  0
  5  6  1  0
  6  7  1  0
  7  8  1  0
  8  9  1  0
  9 10  1  0
 10 11  2  0
 10 12  1  0
 12 13  1  0
 13 14  2  0
 14 15  1  0
 15 16  2  0
 16 17  1  0
 17 18  1  0
 18 19  1  0
 19 20  1  0
 20 21  1  0
 21 22  1  0
 22 23  2  0
 22 24  1  0
 24 25  1  0
 25 26  2  0
 26 27  1  0
 27 28  2  0
 28 29  1  0
 29 30  2  0
 21 31  1  0
 31 32  2  0
  9 33  1  0
 33 34  2  0
 34 35  1  0
 35 36  2  0
 36 37  1  0
 37 38  2  0
 38  4  1  0
 17 13  1  0
 31 18  1  0
 38 33  1  0
 30 25  1  0
M  END
>  <Title>  (1288) 
idABVPgen14

$$$$

     RDKit          2D

  9  9  0  0  0  0  0  0  0  0999 V2000
    5.0260   -1.2990    0.0000 C   0  0  0  0  0  0  0  0  0  0  0  0
    3.5260   -1.2990    0.0000 C   0  0  0  0  0  0  0  0  0  0  0  0
    2.7760   -2.5981    0.0000 O   0  0  0  0  0  0  0  0  0  0  0  0
    2.7760    0.0000    0.0000 N   0  0  0  0  0  0  0  0  0  0  0  0
    1.2760    0.0000    0.0000 C   0  0  0  0  0  0  0  0  0  0  0  0
    0.3943    1.2135    0.0000 C   0  0  0  0  0  0  0  0  0  0  0  0
   -1.0323    0.7500    0.0000 C   0  0  0  0  0  0  0  0  0  0  0  0
   -1.0323   -0.7500    0.0000 C   0  0  0  0  0  0  0  0  0  0  0  0
    0.3943   -1.2135    0.0000 C   0  0  0  0  0  0  0  0  0  0  0  0
  1  2  1  0
  2  3  2  0
  2  4  1  0
  4  5  1  0
  5  6  2  0
  6  7  1  0
  7  8  1  0
  8  9  1  0
  9  5  1  0
M  END
>  <Title>  (1289) 
idABVQgen14

$$$$

     RDKit          2D

 38 42  0  0  0  0  0  0  0  0999 V2000
   -3.1981   -1.5132    0.0000 C   0  0  0  0  0  0  0  0  0  0  0  0
   -1.8991   -2.2632    0.0000 C   0  0  0  0  0  0  0  0  0  0  0  0
   -2.1595   -3.7404    0.0000 C   0  0  0  0  0  0  0  0  0  0  0  0
   -1.4095   -5.0395    0.0000 C   0  0  0  0  0  0  0  0  0  0  0  0
   -0.0000   -5.5525    0.0000 C   0  0  0  0  0  0  0  0  0  0  0  0
    1.4095   -5.0395    0.0000 C   0  0  0  0  0  0  0  0  0  0  0  0
    2.3737   -6.1885    0.0000 C   0  0  0  0  0  0  0  0  0  0  0  0
    3.8509   -5.9281    0.0000 O   0  0  0  0  0  0  0  0  0  0  0  0
    1.8607   -7.5981    0.0000 N   0  0  0  0  0  0  0  0  0  0  0  0
    2.8249   -8.7471    0.0000 C   0  0  0  0  0  0  0  0  0  0  0  0
    4.3212   -8.6425    0.0000 N   0  0  0  0  0  0  0  0  0  0  0  0
    4.8831  -10.0333    0.0000 N   0  0  0  0  0  0  0  0  0  0  0  0
    3.7341  -10.9975    0.0000 N   0  0  0  0  0  0  0  0  0  0  0  0
    2.4620  -10.2026    0.0000 N   0  0  0  0  0  0  0  0  0  0  0  0
    1.0712  -10.7645    0.0000 N   0  0  0  0  0  0  0  0  0  0  0  0
    0.7083  -12.2199    0.0000 C   0  0  0  0  0  0  0  0  0  0  0  0
   -0.7880  -12.3246    0.0000 C   0  0  0  0  0  0  0  0  0  0  0  0
   -1.3499  -10.9338    0.0000 N   0  0  0  0  0  0  0  0  0  0  0  0
   -2.8054  -10.5709    0.0000 C   0  0  0  0  0  0  0  0  0  0  0  0
   -3.8474  -11.6499    0.0000 O   0  0  0  0  0  0  0  0  0  0  0  0
   -3.2188   -9.1290    0.0000 N   0  0  0  0  0  0  0  0  0  0  0  0
   -4.6743   -8.7661    0.0000 C   0  0  0  0  0  0  0  0  0  0  0  0
   -5.0877   -7.3242    0.0000 N   0  0  0  0  0  0  0  0  0  0  0  0
   -6.5432   -6.9614    0.0000 N   0  0  0  0  0  0  0  0  0  0  0  0
   -7.5852   -8.0404    0.0000 N   0  0  0  0  0  0  0  0  0  0  0  0
   -7.1717   -9.4823    0.0000 N   0  0  0  0  0  0  0  0  0  0  0  0
   -5.7163   -9.8451    0.0000 N   0  0  0  0  0  0  0  0  0  0  0  0
   -0.2009   -9.9696    0.0000 C   0  0  0  0  0  0  0  0  0  0  0  0
   -0.3055   -8.4733    0.0000 O   0  0  0  0  0  0  0  0  0  0  0  0
    2.1595   -3.7404    0.0000 C   0  0  0  0  0  0  0  0  0  0  0  0
    3.6368   -4.0009    0.0000 O   0  0  0  0  0  0  0  0  0  0  0  0
    1.8991   -2.2632    0.0000 O   0  0  0  0  0  0  0  0  0  0  0  0
    0.7500   -1.2990    0.0000 C   0  0  0  0  0  0  0  0  0  0  0  0
    1.5000    0.0000    0.0000 C   0  0  0  0  0  0  0  0  0  0  0  0
    0.7500    1.2990    0.0000 C   0  0  0  0  0  0  0  0  0  0  0  0
   -0.7500    1.2990    0.0000 C   0  0  0  0  0  0  0  0  0  0  0  0
   -1.5000    0.0000    0.0000 C   0  0  0  0  0  0  0  0  0  0  0  0
   -0.7500   -1.2990    0.0000 C   0  0  0  0  0  0  0  0  0  0  0  0
  1  2  1  0
  2  3  2  0
  3  4  1  0
  4  5  1  0
  5  6  1  0
  6  7  1  0
  7  8  2  0
  7  9  1  0
  9 10  1  0
 10 11  2  0
 11 12  1  0
 12 13  2  0
 13 14  1  0
 14 15  1  0
 15 16  1  0
 16 17  1  0
 17 18  1  0
 18 19  1  0
 19 20  2  0
 19 21  1  0
 21 22  1  0
 22 23  2  0
 23 24  1  0
 24 25  2  0
 25 26  1  0
 26 27  2  0
 18 28  1  0
 28 29  2  0
  6 30  1  0
 30 31  2  0
 30 32  1  0
 32 33  1  0
 33 34  2  0
 34 35  1  0
 35 36  2  0
 36 37  1  0
 37 38  2  0
 38  2  1  0
 14 10  1  0
 28 15  1  0
 38 33  1  0
 27 22  1  0
M  END
>  <Title>  (1290) 
idABVRgen14

$$$$

     RDKit          2D

 12 11  0  0  0  0  0  0  0  0999 V2000
    0.0000    0.0000    0.0000 C   0  0  0  0  0  0  0  0  0  0  0  0
    1.2990    0.7500    0.0000 C   0  0  0  0  0  0  0  0  0  0  0  0
    2.5981   -0.0000    0.0000 C   0  0  0  0  0  0  0  0  0  0  0  0
    3.8971    0.7500    0.0000 C   0  0  0  0  0  0  0  0  0  0  0  0
    5.1962   -0.0000    0.0000 C   0  0  0  0  0  0  0  0  0  0  0  0
    5.1962   -1.5000    0.0000 O   0  0  0  0  0  0  0  0  0  0  0  0
    6.4952    0.7500    0.0000 N   0  0  0  0  0  0  0  0  0  0  0  0
    7.7942   -0.0000    0.0000 C   0  0  0  0  0  0  0  0  0  0  0  0
    9.0933    0.7500    0.0000 C   0  0  0  0  0  0  0  0  0  0  0  0
    7.7942   -1.5000    0.0000 C   0  0  0  0  0  0  0  0  0  0  0  0
    2.5981   -1.5000    0.0000 O   0  0  0  0  0  0  0  0  0  0  0  0
    3.8971   -2.2500    0.0000 C   0  0  0  0  0  0  0  0  0  0  0  0
  1  2  1  0
  2  3  1  0
  3  4  1  0
  4  5  1  0
  5  6  2  0
  5  7  1  0
  7  8  1  0
  8  9  1  0
  8 10  1  0
  3 11  1  0
 11 12  1  0
M  END
>  <Title>  (1291) 
idABVSgen14

$$$$

     RDKit          2D

 13 12  0  0  0  0  0  0  0  0999 V2000
    0.0000    0.0000    0.0000 C   0  0  0  0  0  0  0  0  0  0  0  0
    1.2990    0.7500    0.0000 C   0  0  0  0  0  0  0  0  0  0  0  0
    2.5981   -0.0000    0.0000 C   0  0  0  0  0  0  0  0  0  0  0  0
    3.8971    0.7500    0.0000 C   0  0  0  0  0  0  0  0  0  0  0  0
    5.1962   -0.0000    0.0000 C   0  0  0  0  0  0  0  0  0  0  0  0
    6.4952    0.7500    0.0000 C   0  0  0  0  0  0  0  0  0  0  0  0
    7.7942   -0.0000    0.0000 C   0  0  0  0  0  0  0  0  0  0  0  0
    9.0933    0.7500    0.0000 C   0  0  0  0  0  0  0  0  0  0  0  0
   10.3923   -0.0000    0.0000 C   0  0  0  0  0  0  0  0  0  0  0  0
   11.6913    0.7500    0.0000 C   0  0  0  0  0  0  0  0  0  0  0  0
   12.9904   -0.0000    0.0000 C   0  0  0  0  0  0  0  0  0  0  0  0
   14.2894    0.7500    0.0000 C   0  0  0  0  0  0  0  0  0  0  0  0
   15.5885    1.5000    0.0000 N   0  0  0  0  0  0  0  0  0  0  0  0
  1  2  1  0
  2  3  1  0
  3  4  1  0
  4  5  1  0
  5  6  1  0
  6  7  1  0
  7  8  2  3
  8  9  1  0
  9 10  1  0
 10 11  1  0
 11 12  1  0
 12 13  3  0
M  END
>  <Title>  (1292) 
idABVTgen14

$$$$

     RDKit          2D

 22 24  0  0  0  0  0  0  0  0999 V2000
    3.0000    0.0000    0.0000 C   0  0  0  0  0  0  0  0  0  0  0  0
    1.5000    0.0000    0.0000 C   0  0  0  0  0  0  0  0  0  0  0  0
    0.7500   -1.2990    0.0000 C   0  0  0  0  0  0  0  0  0  0  0  0
   -0.7500   -1.2990    0.0000 C   0  0  0  0  0  0  0  0  0  0  0  0
   -1.5000    0.0000    0.0000 C   0  0  0  0  0  0  0  0  0  0  0  0
   -3.0000    0.0000    0.0000 C   0  0  0  0  0  0  0  0  0  0  0  0
   -3.7500   -1.2990    0.0000 O   0  0  0  0  0  0  0  0  0  0  0  0
   -3.7500    1.2990    0.0000 N   0  0  0  0  0  0  0  0  0  0  0  0
   -5.2500    1.2990    0.0000 C   0  0  0  0  0  0  0  0  0  0  0  0
   -6.1317    0.0855    0.0000 N   0  0  0  0  0  0  0  0  0  0  0  0
   -7.5583    0.5490    0.0000 N   0  0  0  0  0  0  0  0  0  0  0  0
   -7.5583    2.0490    0.0000 N   0  0  0  0  0  0  0  0  0  0  0  0
   -6.1317    2.5126    0.0000 N   0  0  0  0  0  0  0  0  0  0  0  0
   -5.6682    3.9391    0.0000 C   0  0  0  0  0  0  0  0  0  0  0  0
   -4.2009    4.2510    0.0000 C   0  0  0  0  0  0  0  0  0  0  0  0
   -3.7374    5.6776    0.0000 C   0  0  0  0  0  0  0  0  0  0  0  0
   -4.7411    6.7923    0.0000 C   0  0  0  0  0  0  0  0  0  0  0  0
   -4.2776    8.2189    0.0000 O   0  0  0  0  0  0  0  0  0  0  0  0
   -6.2083    6.4805    0.0000 C   0  0  0  0  0  0  0  0  0  0  0  0
   -6.6718    5.0539    0.0000 C   0  0  0  0  0  0  0  0  0  0  0  0
   -0.7500    1.2990    0.0000 C   0  0  0  0  0  0  0  0  0  0  0  0
    0.7500    1.2990    0.0000 C   0  0  0  0  0  0  0  0  0  0  0  0
  1  2  1  0
  2  3  1  0
  3  4  2  0
  4  5  1  0
  5  6  1  0
  6  7  2  0
  6  8  1  0
  8  9  1  0
  9 10  2  0
 10 11  1  0
 11 12  2  0
 12 13  1  0
 13 14  1  0
 14 15  2  0
 15 16  1  0
 16 17  2  0
 17 18  1  0
 17 19  1  0
 19 20  2  0
  5 21  1  0
 21 22  2  0
 22  2  1  0
 13  9  1  0
 20 14  1  0
M  END
>  <Title>  (1293) 
idABVUgen14

$$$$

     RDKit          2D

 34 38  0  0  0  0  0  0  0  0999 V2000
   -3.0000   -2.5981    0.0000 C   0  0  0  0  0  0  0  0  0  0  0  0
   -1.5000   -2.5981    0.0000 C   0  0  0  0  0  0  0  0  0  0  0  0
   -0.7500   -3.8971    0.0000 C   0  0  0  0  0  0  0  0  0  0  0  0
    0.7500   -3.8971    0.0000 N   0  0  0  0  0  0  0  0  0  0  0  0
    1.5000   -2.5981    0.0000 C   0  0  0  0  0  0  0  0  0  0  0  0
    3.0000   -2.5981    0.0000 C   0  0  0  0  0  0  0  0  0  0  0  0
    3.7500   -1.2990    0.0000 O   0  0  0  0  0  0  0  0  0  0  0  0
    3.7500   -3.8971    0.0000 N   0  0  0  0  0  0  0  0  0  0  0  0
    5.2500   -3.8971    0.0000 C   0  0  0  0  0  0  0  0  0  0  0  0
    6.1317   -2.6836    0.0000 N   0  0  0  0  0  0  0  0  0  0  0  0
    7.5583   -3.1471    0.0000 N   0  0  0  0  0  0  0  0  0  0  0  0
    7.5583   -4.6471    0.0000 N   0  0  0  0  0  0  0  0  0  0  0  0
    6.1317   -5.1106    0.0000 N   0  0  0  0  0  0  0  0  0  0  0  0
    5.6682   -6.5372    0.0000 N   0  0  0  0  0  0  0  0  0  0  0  0
    6.5498   -7.7508    0.0000 C   0  0  0  0  0  0  0  0  0  0  0  0
    5.6682   -8.9643    0.0000 C   0  0  0  0  0  0  0  0  0  0  0  0
    4.2416   -8.5008    0.0000 N   0  0  0  0  0  0  0  0  0  0  0  0
    3.0280   -9.3824    0.0000 C   0  0  0  0  0  0  0  0  0  0  0  0
    3.1848  -10.8742    0.0000 O   0  0  0  0  0  0  0  0  0  0  0  0
    1.6577   -8.7723    0.0000 N   0  0  0  0  0  0  0  0  0  0  0  0
    0.4442   -9.6540    0.0000 C   0  0  0  0  0  0  0  0  0  0  0  0
   -0.9261   -9.0439    0.0000 N   0  0  0  0  0  0  0  0  0  0  0  0
   -2.1396   -9.9256    0.0000 N   0  0  0  0  0  0  0  0  0  0  0  0
   -1.9829  -11.4174    0.0000 N   0  0  0  0  0  0  0  0  0  0  0  0
   -0.6125  -12.0275    0.0000 N   0  0  0  0  0  0  0  0  0  0  0  0
    0.6010  -11.1458    0.0000 N   0  0  0  0  0  0  0  0  0  0  0  0
    4.2416   -7.0008    0.0000 C   0  0  0  0  0  0  0  0  0  0  0  0
    3.0280   -6.1191    0.0000 O   0  0  0  0  0  0  0  0  0  0  0  0
    0.7500   -1.2990    0.0000 C   0  0  0  0  0  0  0  0  0  0  0  0
    1.5000    0.0000    0.0000 C   0  0  0  0  0  0  0  0  0  0  0  0
    0.7500    1.2990    0.0000 C   0  0  0  0  0  0  0  0  0  0  0  0
   -0.7500    1.2990    0.0000 C   0  0  0  0  0  0  0  0  0  0  0  0
   -1.5000    0.0000    0.0000 C   0  0  0  0  0  0  0  0  0  0  0  0
   -0.7500   -1.2990    0.0000 C   0  0  0  0  0  0  0  0  0  0  0  0
  1  2  1  0
  2  3  2  0
  3  4  1  0
  4  5  2  0
  5  6  1  0
  6  7  2  0
  6  8  1  0
  8  9  1  0
  9 10  2  0
 10 11  1  0
 11 12  2  0
 12 13  1  0
 13 14  1  0
 14 15  1  0
 15 16  1  0
 16 17  1  0
 17 18  1  0
 18 19  2  0
 18 20  1  0
 20 21  1  0
 21 22  2  0
 22 23  1  0
 23 24  2  0
 24 25  1  0
 25 26  2  0
 17 27  1  0
 27 28  2  0
  5 29  1  0
 29 30  2  0
 30 31  1  0
 31 32  2  0
 32 33  1  0
 33 34  2  0
 34  2  1  0
 13  9  1  0
 27 14  1  0
 34 29  1  0
 26 21  1  0
M  END
>  <Title>  (1294) 
idABVVgen14

$$$$

     RDKit          2D

 11 11  0  0  0  0  0  0  0  0999 V2000
    7.2760    0.0000    0.0000 C   0  0  0  0  0  0  0  0  0  0  0  0
    5.7760    0.0000    0.0000 C   0  0  0  0  0  0  0  0  0  0  0  0
    5.0260   -1.2990    0.0000 C   0  0  0  0  0  0  0  0  0  0  0  0
    5.7760   -2.5981    0.0000 C   0  0  0  0  0  0  0  0  0  0  0  0
    3.5260   -1.2990    0.0000 O   0  0  0  0  0  0  0  0  0  0  0  0
    2.7760    0.0000    0.0000 C   0  0  0  0  0  0  0  0  0  0  0  0
    1.2760    0.0000    0.0000 N   0  0  0  0  0  0  0  0  0  0  0  0
    0.3943    1.2135    0.0000 C   0  0  0  0  0  0  0  0  0  0  0  0
   -1.0323    0.7500    0.0000 C   0  0  0  0  0  0  0  0  0  0  0  0
   -1.0323   -0.7500    0.0000 C   0  0  0  0  0  0  0  0  0  0  0  0
    0.3943   -1.2135    0.0000 C   0  0  0  0  0  0  0  0  0  0  0  0
  1  2  1  0
  2  3  1  0
  3  4  1  0
  3  5  1  0
  5  6  1  0
  6  7  1  0
  7  8  1  0
  8  9  2  0
  9 10  1  0
 10 11  2  0
 11  7  1  0
M  END
>  <Title>  (1295) 
idABVWgen14

$$$$

     RDKit          2D

 90 91  0  0  0  0  0  0  0  0999 V2000
   -2.1842   -1.0769    0.0000 C   0  0  0  0  0  0  0  0  0  0  0  0
   -2.4889    0.3918    0.0000 C   0  0  0  0  0  0  0  0  0  0  0  0
   -3.9678    0.1410    0.0000 C   0  0  0  0  0  0  0  0  0  0  0  0
   -5.4610   -0.0013    0.0000 C   0  0  0  0  0  0  0  0  0  0  0  0
   -6.9607   -0.0342    0.0000 C   0  0  0  0  0  0  0  0  0  0  0  0
   -8.4587    0.0425    0.0000 C   0  0  0  0  0  0  0  0  0  0  0  0
   -9.9471    0.2283    0.0000 C   0  0  0  0  0  0  0  0  0  0  0  0
  -11.4180    0.5223    0.0000 C   0  0  0  0  0  0  0  0  0  0  0  0
  -12.8636    0.9229    0.0000 C   0  0  0  0  0  0  0  0  0  0  0  0
  -14.2760    1.4279    0.0000 C   0  0  0  0  0  0  0  0  0  0  0  0
  -15.6478    2.0347    0.0000 C   0  0  0  0  0  0  0  0  0  0  0  0
  -16.9717    2.7400    0.0000 C   0  0  0  0  0  0  0  0  0  0  0  0
  -18.2405    3.5400    0.0000 C   0  0  0  0  0  0  0  0  0  0  0  0
  -19.4475    4.4305    0.0000 C   0  0  0  0  0  0  0  0  0  0  0  0
  -20.5864    5.4068    0.0000 C   0  0  0  0  0  0  0  0  0  0  0  0
  -21.6509    6.4635    0.0000 C   0  0  0  0  0  0  0  0  0  0  0  0
  -22.6354    7.5952    0.0000 C   0  0  0  0  0  0  0  0  0  0  0  0
  -23.5348    8.7957    0.0000 C   0  0  0  0  0  0  0  0  0  0  0  0
  -24.3440   10.0587    0.0000 C   0  0  0  0  0  0  0  0  0  0  0  0
  -25.0590   11.3773    0.0000 C   0  0  0  0  0  0  0  0  0  0  0  0
  -25.6758   12.7447    0.0000 C   0  0  0  0  0  0  0  0  0  0  0  0
  -26.1911   14.1534    0.0000 C   0  0  0  0  0  0  0  0  0  0  0  0
  -26.6022   15.5959    0.0000 C   0  0  0  0  0  0  0  0  0  0  0  0
  -26.9069   17.0647    0.0000 C   0  0  0  0  0  0  0  0  0  0  0  0
  -27.1036   18.5517    0.0000 C   0  0  0  0  0  0  0  0  0  0  0  0
  -27.1912   20.0491    0.0000 C   0  0  0  0  0  0  0  0  0  0  0  0
  -27.1693   21.5490    0.0000 C   0  0  0  0  0  0  0  0  0  0  0  0
  -27.0380   23.0432    0.0000 C   0  0  0  0  0  0  0  0  0  0  0  0
  -26.7979   24.5239    0.0000 C   0  0  0  0  0  0  0  0  0  0  0  0
  -26.4504   25.9831    0.0000 C   0  0  0  0  0  0  0  0  0  0  0  0
  -25.9973   27.4130    0.0000 C   0  0  0  0  0  0  0  0  0  0  0  0
  -25.4410   28.8061    0.0000 C   0  0  0  0  0  0  0  0  0  0  0  0
  -24.7846   30.1548    0.0000 C   0  0  0  0  0  0  0  0  0  0  0  0
  -24.0314   31.4520    0.0000 C   0  0  0  0  0  0  0  0  0  0  0  0
  -23.1856   32.6908    0.0000 C   0  0  0  0  0  0  0  0  0  0  0  0
  -22.2516   33.8645    0.0000 C   0  0  0  0  0  0  0  0  0  0  0  0
  -21.2344   34.9669    0.0000 C   0  0  0  0  0  0  0  0  0  0  0  0
  -20.1394   35.9921    0.0000 C   0  0  0  0  0  0  0  0  0  0  0  0
  -18.9726   36.9347    0.0000 C   0  0  0  0  0  0  0  0  0  0  0  0
  -17.7400   37.7895    0.0000 C   0  0  0  0  0  0  0  0  0  0  0  0
  -16.4483   38.5522    0.0000 C   0  0  0  0  0  0  0  0  0  0  0  0
  -15.1044   39.2185    0.0000 C   0  0  0  0  0  0  0  0  0  0  0  0
  -13.7155   39.7849    0.0000 C   0  0  0  0  0  0  0  0  0  0  0  0
  -12.2889   40.2484    0.0000 C   0  0  0  0  0  0  0  0  0  0  0  0
  -10.8323   40.6066    0.0000 C   0  0  0  0  0  0  0  0  0  0  0  0
   -9.3534   40.8574    0.0000 C   0  0  0  0  0  0  0  0  0  0  0  0
   -7.8602   40.9997    0.0000 C   0  0  0  0  0  0  0  0  0  0  0  0
   -6.3605   41.0326    0.0000 C   0  0  0  0  0  0  0  0  0  0  0  0
   -4.8625   40.9559    0.0000 C   0  0  0  0  0  0  0  0  0  0  0  0
   -3.3741   40.7701    0.0000 C   0  0  0  0  0  0  0  0  0  0  0  0
   -1.9031   40.4761    0.0000 C   0  0  0  0  0  0  0  0  0  0  0  0
   -0.4576   40.0755    0.0000 C   0  0  0  0  0  0  0  0  0  0  0  0
    0.9548   39.5705    0.0000 C   0  0  0  0  0  0  0  0  0  0  0  0
    2.3266   38.9637    0.0000 C   0  0  0  0  0  0  0  0  0  0  0  0
    3.6505   38.2585    0.0000 C   0  0  0  0  0  0  0  0  0  0  0  0
    4.9193   37.4584    0.0000 C   0  0  0  0  0  0  0  0  0  0  0  0
    6.1263   36.5679    0.0000 C   0  0  0  0  0  0  0  0  0  0  0  0
    7.2652   35.5917    0.0000 C   0  0  0  0  0  0  0  0  0  0  0  0
    8.3297   34.5349    0.0000 C   0  0  0  0  0  0  0  0  0  0  0  0
    9.3143   33.4032    0.0000 C   0  0  0  0  0  0  0  0  0  0  0  0
   10.2136   32.2027    0.0000 C   0  0  0  0  0  0  0  0  0  0  0  0
   11.0229   30.9397    0.0000 C   0  0  0  0  0  0  0  0  0  0  0  0
   11.7378   29.6211    0.0000 C   0  0  0  0  0  0  0  0  0  0  0  0
   12.3546   28.2537    0.0000 C   0  0  0  0  0  0  0  0  0  0  0  0
   12.8699   26.8450    0.0000 C   0  0  0  0  0  0  0  0  0  0  0  0
   13.2810   25.4025    0.0000 C   0  0  0  0  0  0  0  0  0  0  0  0
   13.5857   23.9338    0.0000 C   0  0  0  0  0  0  0  0  0  0  0  0
   13.7824   22.4467    0.0000 C   0  0  0  0  0  0  0  0  0  0  0  0
   13.8700   20.9493    0.0000 C   0  0  0  0  0  0  0  0  0  0  0  0
   13.8481   19.4494    0.0000 C   0  0  0  0  0  0  0  0  0  0  0  0
   13.7168   17.9552    0.0000 C   0  0  0  0  0  0  0  0  0  0  0  0
   13.4767   16.4745    0.0000 C   0  0  0  0  0  0  0  0  0  0  0  0
   13.1292   15.0153    0.0000 C   0  0  0  0  0  0  0  0  0  0  0  0
   12.6761   13.5854    0.0000 C   0  0  0  0  0  0  0  0  0  0  0  0
   12.1199   12.1924    0.0000 C   0  0  0  0  0  0  0  0  0  0  0  0
   11.4634   10.8436    0.0000 C   0  0  0  0  0  0  0  0  0  0  0  0
   10.7102    9.5464    0.0000 C   0  0  0  0  0  0  0  0  0  0  0  0
    9.8644    8.3077    0.0000 C   0  0  0  0  0  0  0  0  0  0  0  0
    8.9304    7.1339    0.0000 C   0  0  0  0  0  0  0  0  0  0  0  0
    7.9132    6.0315    0.0000 C   0  0  0  0  0  0  0  0  0  0  0  0
    6.8182    5.0063    0.0000 C   0  0  0  0  0  0  0  0  0  0  0  0
    5.6514    4.0637    0.0000 C   0  0  0  0  0  0  0  0  0  0  0  0
    4.4188    3.2089    0.0000 C   0  0  0  0  0  0  0  0  0  0  0  0
    3.1271    2.4462    0.0000 C   0  0  0  0  0  0  0  0  0  0  0  0
    1.7832    1.7799    0.0000 C   0  0  0  0  0  0  0  0  0  0  0  0
    0.3943    1.2135    0.0000 C   0  0  0  0  0  0  0  0  0  0  0  0
    1.2760    0.0000    0.0000 C   0  0  0  0  0  0  0  0  0  0  0  0
    0.3943   -1.2135    0.0000 C   0  0  0  0  0  0  0  0  0  0  0  0
   -1.0323   -0.7500    0.0000 C   0  0  0  0  0  0  0  0  0  0  0  0
   -1.0323    0.7500    0.0000 C   0  0  0  0  0  0  0  0  0  0  0  0
  1  2  1  0
  2  3  1  0
  3  4  1  0
  4  5  1  0
  5  6  1  0
  6  7  1  0
  7  8  1  0
  8  9  1  0
  9 10  1  0
 10 11  1  0
 11 12  1  0
 12 13  1  0
 13 14  1  0
 14 15  1  0
 15 16  1  0
 16 17  1  0
 17 18  1  0
 18 19  1  0
 19 20  1  0
 20 21  1  0
 21 22  1  0
 22 23  1  0
 23 24  1  0
 24 25  1  0
 25 26  1  0
 26 27  1  0
 27 28  1  0
 28 29  1  0
 29 30  1  0
 30 31  1  0
 31 32  1  0
 32 33  1  0
 33 34  1  0
 34 35  1  0
 35 36  1  0
 36 37  1  0
 37 38  1  0
 38 39  1  0
 39 40  1  0
 40 41  1  0
 41 42  1  0
 42 43  1  0
 43 44  1  0
 44 45  1  0
 45 46  1  0
 46 47  1  0
 47 48  1  0
 48 49  1  0
 49 50  1  0
 50 51  1  0
 51 52  1  0
 52 53  1  0
 53 54  1  0
 54 55  1  0
 55 56  1  0
 56 57  1  0
 57 58  1  0
 58 59  1  0
 59 60  1  0
 60 61  1  0
 61 62  1  0
 62 63  1  0
 63 64  1  0
 64 65  1  0
 65 66  1  0
 66 67  1  0
 67 68  1  0
 68 69  1  0
 69 70  1  0
 70 71  1  0
 71 72  1  0
 72 73  1  0
 73 74  1  0
 74 75  1  0
 75 76  1  0
 76 77  1  0
 77 78  2  0
 78 79  1  0
 79 80  2  0
 80 81  1  0
 81 82  2  0
 82 83  1  0
 83 84  2  0
 84 85  1  0
 85 86  2  0
 86 87  1  0
 87 88  2  0
 88 89  1  0
 89 90  2  0
 90  2  1  0
 90 86  1  0
M  END
>  <Title>  (1296) 
idABVXgen14

$$$$

     RDKit          2D

  8  7  0  0  0  0  0  0  0  0999 V2000
    0.0000    0.0000    0.0000 C   0  0  0  0  0  0  0  0  0  0  0  0
    1.2990    0.7500    0.0000 C   0  0  0  0  0  0  0  0  0  0  0  0
    2.5981   -0.0000    0.0000 C   0  0  0  0  0  0  0  0  0  0  0  0
    3.8971    0.7500    0.0000 C   0  0  0  0  0  0  0  0  0  0  0  0
    2.5981   -1.5000    0.0000 N   0  0  0  0  0  0  0  0  0  0  0  0
    3.8971   -2.2500    0.0000 C   0  0  0  0  0  0  0  0  0  0  0  0
    3.8971   -3.7500    0.0000 C   0  0  0  0  0  0  0  0  0  0  0  0
    5.1962   -1.5000    0.0000 O   0  0  0  0  0  0  0  0  0  0  0  0
  1  2  1  0
  2  3  1  0
  3  4  1  0
  3  5  1  0
  5  6  1  0
  6  7  1  0
  6  8  2  0
M  END
>  <Title>  (1297) 
idABVYgen14

$$$$

     RDKit          2D

 17 18  0  0  0  0  0  0  0  0999 V2000
    3.0000   -5.1962    0.0000 O   0  0  0  0  0  0  0  0  0  0  0  0
    1.5000   -5.1962    0.0000 C   0  0  0  0  0  0  0  0  0  0  0  0
    0.7500   -6.4952    0.0000 C   0  0  0  0  0  0  0  0  0  0  0  0
    1.5000   -7.7942    0.0000 C   0  0  0  0  0  0  0  0  0  0  0  0
    2.9918   -7.9510    0.0000 C   0  0  0  0  0  0  0  0  0  0  0  0
    3.3037   -9.4182    0.0000 S   0  0  0  0  0  0  0  0  0  0  0  0
    2.0046  -10.1682    0.0000 C   0  0  0  0  0  0  0  0  0  0  0  0
    0.8899   -9.1645    0.0000 N   0  0  0  0  0  0  0  0  0  0  0  0
    0.7500   -3.8971    0.0000 N   0  0  0  0  0  0  0  0  0  0  0  0
    1.5000   -2.5981    0.0000 C   0  0  0  0  0  0  0  0  0  0  0  0
    0.7500   -1.2990    0.0000 C   0  0  0  0  0  0  0  0  0  0  0  0
    1.5000    0.0000    0.0000 C   0  0  0  0  0  0  0  0  0  0  0  0
    0.7500    1.2990    0.0000 C   0  0  0  0  0  0  0  0  0  0  0  0
   -0.7500    1.2990    0.0000 C   0  0  0  0  0  0  0  0  0  0  0  0
   -1.5000    2.5981    0.0000 O   0  0  0  0  0  0  0  0  0  0  0  0
   -1.5000    0.0000    0.0000 C   0  0  0  0  0  0  0  0  0  0  0  0
   -0.7500   -1.2990    0.0000 C   0  0  0  0  0  0  0  0  0  0  0  0
  1  2  2  0
  2  3  1  0
  3  4  1  0
  4  5  2  0
  5  6  1  0
  6  7  1  0
  7  8  2  0
  2  9  1  0
  9 10  1  0
 10 11  1  0
 11 12  2  0
 12 13  1  0
 13 14  2  0
 14 15  1  0
 14 16  1  0
 16 17  2  0
  8  4  1  0
 17 11  1  0
M  END
>  <Title>  (1298) 
idABVZgen14

$$$$

     RDKit          2D

 19 20  0  0  0  0  0  0  0  0999 V2000
    3.7500   -1.2990    0.0000 C   0  0  0  0  0  0  0  0  0  0  0  0
    3.0000    0.0000    0.0000 O   0  0  0  0  0  0  0  0  0  0  0  0
    1.5000    0.0000    0.0000 C   0  0  0  0  0  0  0  0  0  0  0  0
    0.7500   -1.2990    0.0000 C   0  0  0  0  0  0  0  0  0  0  0  0
   -0.7500   -1.2990    0.0000 C   0  0  0  0  0  0  0  0  0  0  0  0
   -1.5000    0.0000    0.0000 C   0  0  0  0  0  0  0  0  0  0  0  0
   -3.0000    0.0000    0.0000 C   0  0  0  0  0  0  0  0  0  0  0  0
   -3.7500    1.2990    0.0000 N   0  0  0  0  0  0  0  0  0  0  0  0
   -5.2500    1.2990    0.0000 C   0  0  0  0  0  0  0  0  0  0  0  0
   -6.0000    0.0000    0.0000 O   0  0  0  0  0  0  0  0  0  0  0  0
   -6.0000    2.5981    0.0000 C   0  0  0  0  0  0  0  0  0  0  0  0
   -5.2500    3.8971    0.0000 C   0  0  0  0  0  0  0  0  0  0  0  0
   -6.0000    5.1962    0.0000 C   0  0  0  0  0  0  0  0  0  0  0  0
   -7.5000    5.1962    0.0000 C   0  0  0  0  0  0  0  0  0  0  0  0
   -8.2500    3.8971    0.0000 C   0  0  0  0  0  0  0  0  0  0  0  0
   -7.5000    2.5981    0.0000 C   0  0  0  0  0  0  0  0  0  0  0  0
   -8.2500    1.2990    0.0000 C   0  0  0  0  0  0  0  0  0  0  0  0
   -0.7500    1.2990    0.0000 C   0  0  0  0  0  0  0  0  0  0  0  0
    0.7500    1.2990    0.0000 C   0  0  0  0  0  0  0  0  0  0  0  0
  1  2  1  0
  2  3  1  0
  3  4  2  0
  4  5  1  0
  5  6  2  0
  6  7  1  0
  7  8  1  0
  8  9  1  0
  9 10  2  0
  9 11  1  0
 11 12  1  0
 12 13  1  0
 13 14  1  0
 14 15  1  0
 15 16  1  0
 16 17  1  0
  6 18  1  0
 18 19  2  0
 19  3  1  0
 16 11  1  0
M  END
>  <Title>  (1299) 
idABWAgen14

$$$$

     RDKit          2D

 35 39  0  0  0  0  0  0  0  0999 V2000
   -3.0000   -2.5981    0.0000 C   0  0  0  0  0  0  0  0  0  0  0  0
   -1.5000   -2.5981    0.0000 C   0  0  0  0  0  0  0  0  0  0  0  0
   -0.7500   -3.8971    0.0000 C   0  0  0  0  0  0  0  0  0  0  0  0
    0.7500   -3.8971    0.0000 C   0  0  0  0  0  0  0  0  0  0  0  0
    1.5000   -2.5981    0.0000 C   0  0  0  0  0  0  0  0  0  0  0  0
    3.0000   -2.5981    0.0000 C   0  0  0  0  0  0  0  0  0  0  0  0
    3.7500   -1.2990    0.0000 O   0  0  0  0  0  0  0  0  0  0  0  0
    3.7500   -3.8971    0.0000 N   0  0  0  0  0  0  0  0  0  0  0  0
    5.2500   -3.8971    0.0000 C   0  0  0  0  0  0  0  0  0  0  0  0
    6.1317   -2.6836    0.0000 N   0  0  0  0  0  0  0  0  0  0  0  0
    7.5583   -3.1471    0.0000 N   0  0  0  0  0  0  0  0  0  0  0  0
    7.5583   -4.6471    0.0000 N   0  0  0  0  0  0  0  0  0  0  0  0
    6.1317   -5.1106    0.0000 N   0  0  0  0  0  0  0  0  0  0  0  0
    5.6682   -6.5372    0.0000 N   0  0  0  0  0  0  0  0  0  0  0  0
    6.5498   -7.7508    0.0000 C   0  0  0  0  0  0  0  0  0  0  0  0
    5.6682   -8.9643    0.0000 C   0  0  0  0  0  0  0  0  0  0  0  0
    4.2416   -8.5008    0.0000 N   0  0  0  0  0  0  0  0  0  0  0  0
    3.0280   -9.3824    0.0000 C   0  0  0  0  0  0  0  0  0  0  0  0
    3.1848  -10.8742    0.0000 O   0  0  0  0  0  0  0  0  0  0  0  0
    1.6577   -8.7723    0.0000 N   0  0  0  0  0  0  0  0  0  0  0  0
    0.4442   -9.6540    0.0000 C   0  0  0  0  0  0  0  0  0  0  0  0
   -0.9261   -9.0439    0.0000 N   0  0  0  0  0  0  0  0  0  0  0  0
   -2.1396   -9.9256    0.0000 N   0  0  0  0  0  0  0  0  0  0  0  0
   -1.9829  -11.4174    0.0000 N   0  0  0  0  0  0  0  0  0  0  0  0
   -0.6125  -12.0275    0.0000 N   0  0  0  0  0  0  0  0  0  0  0  0
    0.6010  -11.1458    0.0000 N   0  0  0  0  0  0  0  0  0  0  0  0
    4.2416   -7.0008    0.0000 C   0  0  0  0  0  0  0  0  0  0  0  0
    3.0280   -6.1191    0.0000 O   0  0  0  0  0  0  0  0  0  0  0  0
    0.7500   -1.2990    0.0000 C   0  0  0  0  0  0  0  0  0  0  0  0
    1.5000    0.0000    0.0000 C   0  0  0  0  0  0  0  0  0  0  0  0
    0.7500    1.2990    0.0000 C   0  0  0  0  0  0  0  0  0  0  0  0
   -0.7500    1.2990    0.0000 C   0  0  0  0  0  0  0  0  0  0  0  0
   -1.5000    2.5981    0.0000 O   0  0  0  0  0  0  0  0  0  0  0  0
   -1.5000    0.0000    0.0000 C   0  0  0  0  0  0  0  0  0  0  0  0
   -0.7500   -1.2990    0.0000 C   0  0  0  0  0  0  0  0  0  0  0  0
  1  2  1  0
  2  3  2  0
  3  4  1  0
  4  5  1  0
  5  6  1  0
  6  7  2  0
  6  8  1  0
  8  9  1  0
  9 10  2  0
 10 11  1  0
 11 12  2  0
 12 13  1  0
 13 14  1  0
 14 15  1  0
 15 16  1  0
 16 17  1  0
 17 18  1  0
 18 19  2  0
 18 20  1  0
 20 21  1  0
 21 22  2  0
 22 23  1  0
 23 24  2  0
 24 25  1  0
 25 26  2  0
 17 27  1  0
 27 28  2  0
  5 29  1  0
 29 30  2  0
 30 31  1  0
 31 32  2  0
 32 33  1  0
 32 34  1  0
 34 35  2  0
 35  2  1  0
 13  9  1  0
 27 14  1  0
 35 29  1  0
 26 21  1  0
M  END
>  <Title>  (1300) 
idABWBgen14

$$$$

     RDKit          2D

  6  5  0  0  0  0  0  0  0  0999 V2000
    0.0000    0.0000    0.0000 C   0  0  0  0  0  0  0  0  0  0  0  0
   -0.0000   -1.5000    0.0000 C   0  0  0  0  0  0  0  0  0  0  0  0
   -0.0000   -3.0000    0.0000 C   0  0  0  0  0  0  0  0  0  0  0  0
   -0.0000   -4.5000    0.0000 C   0  0  0  0  0  0  0  0  0  0  0  0
   -0.0000   -6.0000    0.0000 C   0  0  0  0  0  0  0  0  0  0  0  0
    1.2990   -6.7500    0.0000 C   0  0  0  0  0  0  0  0  0  0  0  0
  1  2  3  0
  2  3  1  0
  3  4  3  0
  4  5  1  0
  5  6  1  0
M  END
>  <Title>  (1301) 
idABWCgen14

$$$$

     RDKit          2D

 35 39  0  0  0  0  0  0  0  0999 V2000
    8.2500    3.8971    0.0000 C   0  0  0  0  0  0  0  0  0  0  0  0
    7.5000    2.5981    0.0000 C   0  0  0  0  0  0  0  0  0  0  0  0
    8.2500    1.2990    0.0000 C   0  0  0  0  0  0  0  0  0  0  0  0
    7.5000    0.0000    0.0000 C   0  0  0  0  0  0  0  0  0  0  0  0
    6.0000    0.0000    0.0000 C   0  0  0  0  0  0  0  0  0  0  0  0
    5.2500   -1.2990    0.0000 N   0  0  0  0  0  0  0  0  0  0  0  0
    6.0000   -2.5981    0.0000 C   0  0  0  0  0  0  0  0  0  0  0  0
    7.5000   -2.5981    0.0000 O   0  0  0  0  0  0  0  0  0  0  0  0
    5.2500   -3.8971    0.0000 N   0  0  0  0  0  0  0  0  0  0  0  0
    6.0000   -5.1962    0.0000 C   0  0  0  0  0  0  0  0  0  0  0  0
    7.4918   -5.3529    0.0000 N   0  0  0  0  0  0  0  0  0  0  0  0
    7.8037   -6.8202    0.0000 N   0  0  0  0  0  0  0  0  0  0  0  0
    6.5046   -7.5702    0.0000 N   0  0  0  0  0  0  0  0  0  0  0  0
    5.3899   -6.5665    0.0000 N   0  0  0  0  0  0  0  0  0  0  0  0
    3.9227   -6.8783    0.0000 N   0  0  0  0  0  0  0  0  0  0  0  0
    2.8080   -5.8746    0.0000 C   0  0  0  0  0  0  0  0  0  0  0  0
    1.5089   -6.6246    0.0000 C   0  0  0  0  0  0  0  0  0  0  0  0
    1.8208   -8.0919    0.0000 N   0  0  0  0  0  0  0  0  0  0  0  0
    0.8171   -9.2066    0.0000 C   0  0  0  0  0  0  0  0  0  0  0  0
    1.2806  -10.6332    0.0000 O   0  0  0  0  0  0  0  0  0  0  0  0
   -0.6501   -8.8947    0.0000 N   0  0  0  0  0  0  0  0  0  0  0  0
   -1.6538  -10.0094    0.0000 C   0  0  0  0  0  0  0  0  0  0  0  0
   -1.1903  -11.4360    0.0000 N   0  0  0  0  0  0  0  0  0  0  0  0
   -2.1940  -12.5507    0.0000 N   0  0  0  0  0  0  0  0  0  0  0  0
   -3.6612  -12.2389    0.0000 N   0  0  0  0  0  0  0  0  0  0  0  0
   -4.1247  -10.8123    0.0000 N   0  0  0  0  0  0  0  0  0  0  0  0
   -3.1210   -9.6976    0.0000 N   0  0  0  0  0  0  0  0  0  0  0  0
    3.3126   -8.2487    0.0000 C   0  0  0  0  0  0  0  0  0  0  0  0
    4.0626   -9.5477    0.0000 O   0  0  0  0  0  0  0  0  0  0  0  0
    5.2500    1.2990    0.0000 C   0  0  0  0  0  0  0  0  0  0  0  0
    3.7500    1.2990    0.0000 C   0  0  0  0  0  0  0  0  0  0  0  0
    3.0000    2.5981    0.0000 C   0  0  0  0  0  0  0  0  0  0  0  0
    3.7500    3.8971    0.0000 C   0  0  0  0  0  0  0  0  0  0  0  0
    5.2500    3.8971    0.0000 C   0  0  0  0  0  0  0  0  0  0  0  0
    6.0000    2.5981    0.0000 C   0  0  0  0  0  0  0  0  0  0  0  0
  1  2  1  0
  2  3  2  0
  3  4  1  0
  4  5  2  0
  5  6  1  0
  6  7  1  0
  7  8  2  0
  7  9  1  0
  9 10  1  0
 10 11  2  0
 11 12  1  0
 12 13  2  0
 13 14  1  0
 14 15  1  0
 15 16  1  0
 16 17  1  0
 17 18  1  0
 18 19  1  0
 19 20  2  0
 19 21  1  0
 21 22  1  0
 22 23  2  0
 23 24  1  0
 24 25  2  0
 25 26  1  0
 26 27  2  0
 18 28  1  0
 28 29  2  0
  5 30  1  0
 30 31  2  0
 31 32  1  0
 32 33  2  0
 33 34  1  0
 34 35  2  0
 35  2  1  0
 14 10  1  0
 28 15  1  0
 35 30  1  0
 27 22  1  0
M  END
>  <Title>  (1302) 
idABWDgen14

$$$$

     RDKit          2D

  8  7  0  0  0  0  0  0  0  0999 V2000
    0.0000    0.0000    0.0000 C   0  0  0  0  0  0  0  0  0  0  0  0
    1.2990    0.7500    0.0000 C   0  0  0  0  0  0  0  0  0  0  0  0
    2.5981   -0.0000    0.0000 C   0  0  0  0  0  0  0  0  0  0  0  0
    3.8971    0.7500    0.0000 C   0  0  0  0  0  0  0  0  0  0  0  0
    5.1962   -0.0000    0.0000 C   0  0  0  0  0  0  0  0  0  0  0  0
    6.4952    0.7500    0.0000 C   0  0  0  0  0  0  0  0  0  0  0  0
    5.1962   -1.5000    0.0000 N   0  0  0  0  0  0  0  0  0  0  0  0
    6.4952   -2.2500    0.0000 C   0  0  0  0  0  0  0  0  0  0  0  0
  1  2  1  0
  2  3  2  3
  3  4  1  0
  4  5  1  0
  5  6  1  0
  5  7  1  0
  7  8  1  0
M  END
>  <Title>  (1303) 
idABWEgen14

$$$$

     RDKit          2D

 49 54  0  0  0  0  0  0  0  0999 V2000
  -11.6479    3.6925    0.0000 C   0  0  0  0  0  0  0  0  0  0  0  0
  -10.3488    4.4425    0.0000 C   0  0  0  0  0  0  0  0  0  0  0  0
  -10.3488    5.9425    0.0000 C   0  0  0  0  0  0  0  0  0  0  0  0
   -9.0498    3.6925    0.0000 C   0  0  0  0  0  0  0  0  0  0  0  0
   -7.7508    4.4425    0.0000 C   0  0  0  0  0  0  0  0  0  0  0  0
   -7.7508    5.9425    0.0000 C   0  0  0  0  0  0  0  0  0  0  0  0
   -6.4517    3.6925    0.0000 N   0  0  0  0  0  0  0  0  0  0  0  0
   -6.4517    2.1925    0.0000 C   0  0  0  0  0  0  0  0  0  0  0  0
   -5.1527    1.4425    0.0000 C   0  0  0  0  0  0  0  0  0  0  0  0
   -5.1527   -0.0575    0.0000 C   0  0  0  0  0  0  0  0  0  0  0  0
   -6.4517   -0.8075    0.0000 O   0  0  0  0  0  0  0  0  0  0  0  0
   -3.8536   -0.8075    0.0000 N   0  0  0  0  0  0  0  0  0  0  0  0
   -3.8536   -2.3075    0.0000 C   0  0  0  0  0  0  0  0  0  0  0  0
   -5.0672   -3.1891    0.0000 N   0  0  0  0  0  0  0  0  0  0  0  0
   -4.6036   -4.6157    0.0000 N   0  0  0  0  0  0  0  0  0  0  0  0
   -3.1036   -4.6157    0.0000 N   0  0  0  0  0  0  0  0  0  0  0  0
   -2.6401   -3.1891    0.0000 N   0  0  0  0  0  0  0  0  0  0  0  0
   -1.2135   -2.7256    0.0000 N   0  0  0  0  0  0  0  0  0  0  0  0
   -0.0000   -3.6073    0.0000 C   0  0  0  0  0  0  0  0  0  0  0  0
    1.2135   -2.7256    0.0000 C   0  0  0  0  0  0  0  0  0  0  0  0
    2.6401   -3.1891    0.0000 C   0  0  0  0  0  0  0  0  0  0  0  0
    3.7548   -2.1855    0.0000 O   0  0  0  0  0  0  0  0  0  0  0  0
    2.9520   -4.6564    0.0000 N   0  0  0  0  0  0  0  0  0  0  0  0
    4.3786   -5.1199    0.0000 C   0  0  0  0  0  0  0  0  0  0  0  0
    5.5921   -4.2382    0.0000 N   0  0  0  0  0  0  0  0  0  0  0  0
    6.8056   -5.1199    0.0000 N   0  0  0  0  0  0  0  0  0  0  0  0
    6.3421   -6.5465    0.0000 N   0  0  0  0  0  0  0  0  0  0  0  0
    4.8421   -6.5465    0.0000 N   0  0  0  0  0  0  0  0  0  0  0  0
    3.9604   -7.7600    0.0000 N   0  0  0  0  0  0  0  0  0  0  0  0
    4.4239   -9.1866    0.0000 C   0  0  0  0  0  0  0  0  0  0  0  0
    3.2104  -10.0683    0.0000 C   0  0  0  0  0  0  0  0  0  0  0  0
    1.9969   -9.1866    0.0000 N   0  0  0  0  0  0  0  0  0  0  0  0
    0.5703   -9.6501    0.0000 C   0  0  0  0  0  0  0  0  0  0  0  0
    0.2584  -11.1173    0.0000 O   0  0  0  0  0  0  0  0  0  0  0  0
   -0.5444   -8.6464    0.0000 N   0  0  0  0  0  0  0  0  0  0  0  0
   -1.9710   -9.1099    0.0000 C   0  0  0  0  0  0  0  0  0  0  0  0
   -3.0857   -8.1062    0.0000 N   0  0  0  0  0  0  0  0  0  0  0  0
   -4.5123   -8.5698    0.0000 N   0  0  0  0  0  0  0  0  0  0  0  0
   -4.8242  -10.0370    0.0000 N   0  0  0  0  0  0  0  0  0  0  0  0
   -3.7095  -11.0407    0.0000 N   0  0  0  0  0  0  0  0  0  0  0  0
   -2.2829  -10.5772    0.0000 N   0  0  0  0  0  0  0  0  0  0  0  0
    2.4604   -7.7600    0.0000 C   0  0  0  0  0  0  0  0  0  0  0  0
    1.5787   -6.5465    0.0000 O   0  0  0  0  0  0  0  0  0  0  0  0
    0.7500   -1.2990    0.0000 C   0  0  0  0  0  0  0  0  0  0  0  0
    1.5000    0.0000    0.0000 C   0  0  0  0  0  0  0  0  0  0  0  0
    0.7500    1.2990    0.0000 C   0  0  0  0  0  0  0  0  0  0  0  0
   -0.7500    1.2990    0.0000 C   0  0  0  0  0  0  0  0  0  0  0  0
   -1.5000    0.0000    0.0000 C   0  0  0  0  0  0  0  0  0  0  0  0
   -0.7500   -1.2990    0.0000 C   0  0  0  0  0  0  0  0  0  0  0  0
  1  2  1  0
  2  3  1  0
  2  4  1  0
  4  5  1  0
  5  6  1  0
  5  7  1  0
  7  8  1  0
  8  9  1  0
  9 10  1  0
 10 11  2  0
 10 12  1  0
 12 13  1  0
 13 14  2  0
 14 15  1  0
 15 16  2  0
 16 17  1  0
 17 18  1  0
 18 19  1  0
 19 20  2  0
 20 21  1  0
 21 22  2  0
 21 23  1  0
 23 24  1  0
 24 25  2  0
 25 26  1  0
 26 27  2  0
 27 28  1  0
 28 29  1  0
 29 30  1  0
 30 31  1  0
 31 32  1  0
 32 33  1  0
 33 34  2  0
 33 35  1  0
 35 36  1  0
 36 37  2  0
 37 38  1  0
 38 39  2  0
 39 40  1  0
 40 41  2  0
 32 42  1  0
 42 43  2  0
 20 44  1  0
 44 45  2  0
 45 46  1  0
 46 47  2  0
 47 48  1  0
 48 49  2  0
 17 13  1  0
 49 18  1  0
 28 24  1  0
 42 29  1  0
 49 44  1  0
 41 36  1  0
M  END
>  <Title>  (1304) 
idABWFgen14

$$$$

     RDKit          2D

102103  0  0  0  0  0  0  0  0999 V2000
   -2.1612   -1.0857    0.0000 C   0  0  0  0  0  0  0  0  0  0  0  0
   -2.4856    0.3788    0.0000 C   0  0  0  0  0  0  0  0  0  0  0  0
   -3.9598    0.1015    0.0000 C   0  0  0  0  0  0  0  0  0  0  0  0
   -5.4487   -0.0807    0.0000 C   0  0  0  0  0  0  0  0  0  0  0  0
   -6.9462   -0.1672    0.0000 C   0  0  0  0  0  0  0  0  0  0  0  0
   -8.4461   -0.1576    0.0000 C   0  0  0  0  0  0  0  0  0  0  0  0
   -9.9424   -0.0519    0.0000 C   0  0  0  0  0  0  0  0  0  0  0  0
  -11.4288    0.1494    0.0000 C   0  0  0  0  0  0  0  0  0  0  0  0
  -12.8993    0.4456    0.0000 C   0  0  0  0  0  0  0  0  0  0  0  0
  -14.3478    0.8354    0.0000 C   0  0  0  0  0  0  0  0  0  0  0  0
  -15.7683    1.3172    0.0000 C   0  0  0  0  0  0  0  0  0  0  0  0
  -17.1550    1.8890    0.0000 C   0  0  0  0  0  0  0  0  0  0  0  0
  -18.5023    2.5484    0.0000 C   0  0  0  0  0  0  0  0  0  0  0  0
  -19.8045    3.2929    0.0000 C   0  0  0  0  0  0  0  0  0  0  0  0
  -21.0564    4.1192    0.0000 C   0  0  0  0  0  0  0  0  0  0  0  0
  -22.2527    5.0241    0.0000 C   0  0  0  0  0  0  0  0  0  0  0  0
  -23.3886    6.0037    0.0000 C   0  0  0  0  0  0  0  0  0  0  0  0
  -24.4595    7.0541    0.0000 C   0  0  0  0  0  0  0  0  0  0  0  0
  -25.4608    8.1710    0.0000 C   0  0  0  0  0  0  0  0  0  0  0  0
  -26.3885    9.3497    0.0000 C   0  0  0  0  0  0  0  0  0  0  0  0
  -27.2387   10.5854    0.0000 C   0  0  0  0  0  0  0  0  0  0  0  0
  -28.0081   11.8731    0.0000 C   0  0  0  0  0  0  0  0  0  0  0  0
  -28.6933   13.2074    0.0000 C   0  0  0  0  0  0  0  0  0  0  0  0
  -29.2917   14.5829    0.0000 C   0  0  0  0  0  0  0  0  0  0  0  0
  -29.8007   15.9939    0.0000 C   0  0  0  0  0  0  0  0  0  0  0  0
  -30.2183   17.4346    0.0000 C   0  0  0  0  0  0  0  0  0  0  0  0
  -30.5427   18.8991    0.0000 C   0  0  0  0  0  0  0  0  0  0  0  0
  -30.7726   20.3814    0.0000 C   0  0  0  0  0  0  0  0  0  0  0  0
  -30.9070   21.8754    0.0000 C   0  0  0  0  0  0  0  0  0  0  0  0
  -30.9455   23.3749    0.0000 C   0  0  0  0  0  0  0  0  0  0  0  0
  -30.8878   24.8738    0.0000 C   0  0  0  0  0  0  0  0  0  0  0  0
  -30.7342   26.3659    0.0000 C   0  0  0  0  0  0  0  0  0  0  0  0
  -30.4853   27.8451    0.0000 C   0  0  0  0  0  0  0  0  0  0  0  0
  -30.1422   29.3053    0.0000 C   0  0  0  0  0  0  0  0  0  0  0  0
  -29.7062   30.7405    0.0000 C   0  0  0  0  0  0  0  0  0  0  0  0
  -29.1791   32.1449    0.0000 C   0  0  0  0  0  0  0  0  0  0  0  0
  -28.5632   33.5126    0.0000 C   0  0  0  0  0  0  0  0  0  0  0  0
  -27.8608   34.8380    0.0000 C   0  0  0  0  0  0  0  0  0  0  0  0
  -27.0750   36.1157    0.0000 C   0  0  0  0  0  0  0  0  0  0  0  0
  -26.2090   37.3404    0.0000 C   0  0  0  0  0  0  0  0  0  0  0  0
  -25.2663   38.5072    0.0000 C   0  0  0  0  0  0  0  0  0  0  0  0
  -24.2507   39.6111    0.0000 C   0  0  0  0  0  0  0  0  0  0  0  0
  -23.1665   40.6477    0.0000 C   0  0  0  0  0  0  0  0  0  0  0  0
  -22.0181   41.6127    0.0000 C   0  0  0  0  0  0  0  0  0  0  0  0
  -20.8103   42.5021    0.0000 C   0  0  0  0  0  0  0  0  0  0  0  0
  -19.5479   43.3124    0.0000 C   0  0  0  0  0  0  0  0  0  0  0  0
  -18.2363   44.0400    0.0000 C   0  0  0  0  0  0  0  0  0  0  0  0
  -16.8807   44.6822    0.0000 C   0  0  0  0  0  0  0  0  0  0  0  0
  -15.4867   45.2362    0.0000 C   0  0  0  0  0  0  0  0  0  0  0  0
  -14.0601   45.6997    0.0000 C   0  0  0  0  0  0  0  0  0  0  0  0
  -12.6068   46.0709    0.0000 C   0  0  0  0  0  0  0  0  0  0  0  0
  -11.1326   46.3482    0.0000 C   0  0  0  0  0  0  0  0  0  0  0  0
   -9.6438   46.5304    0.0000 C   0  0  0  0  0  0  0  0  0  0  0  0
   -8.1462   46.6169    0.0000 C   0  0  0  0  0  0  0  0  0  0  0  0
   -6.6463   46.6073    0.0000 C   0  0  0  0  0  0  0  0  0  0  0  0
   -5.1500   46.5016    0.0000 C   0  0  0  0  0  0  0  0  0  0  0  0
   -3.6636   46.3003    0.0000 C   0  0  0  0  0  0  0  0  0  0  0  0
   -2.1931   46.0041    0.0000 C   0  0  0  0  0  0  0  0  0  0  0  0
   -0.7446   45.6143    0.0000 C   0  0  0  0  0  0  0  0  0  0  0  0
    0.6759   45.1325    0.0000 C   0  0  0  0  0  0  0  0  0  0  0  0
    2.0626   44.5607    0.0000 C   0  0  0  0  0  0  0  0  0  0  0  0
    3.4099   43.9013    0.0000 C   0  0  0  0  0  0  0  0  0  0  0  0
    4.7121   43.1568    0.0000 C   0  0  0  0  0  0  0  0  0  0  0  0
    5.9640   42.3305    0.0000 C   0  0  0  0  0  0  0  0  0  0  0  0
    7.1603   41.4256    0.0000 C   0  0  0  0  0  0  0  0  0  0  0  0
    8.2962   40.4460    0.0000 C   0  0  0  0  0  0  0  0  0  0  0  0
    9.3670   39.3956    0.0000 C   0  0  0  0  0  0  0  0  0  0  0  0
   10.3683   38.2787    0.0000 C   0  0  0  0  0  0  0  0  0  0  0  0
   11.2960   37.1000    0.0000 C   0  0  0  0  0  0  0  0  0  0  0  0
   12.1463   35.8642    0.0000 C   0  0  0  0  0  0  0  0  0  0  0  0
   12.9157   34.5766    0.0000 C   0  0  0  0  0  0  0  0  0  0  0  0
   13.6009   33.2423    0.0000 C   0  0  0  0  0  0  0  0  0  0  0  0
   14.1993   31.8668    0.0000 C   0  0  0  0  0  0  0  0  0  0  0  0
   14.7083   30.4558    0.0000 C   0  0  0  0  0  0  0  0  0  0  0  0
   15.1259   29.0151    0.0000 C   0  0  0  0  0  0  0  0  0  0  0  0
   15.4503   27.5506    0.0000 C   0  0  0  0  0  0  0  0  0  0  0  0
   15.6802   26.0683    0.0000 C   0  0  0  0  0  0  0  0  0  0  0  0
   15.8146   24.5743    0.0000 C   0  0  0  0  0  0  0  0  0  0  0  0
   15.8531   23.0748    0.0000 C   0  0  0  0  0  0  0  0  0  0  0  0
   15.7954   21.5759    0.0000 C   0  0  0  0  0  0  0  0  0  0  0  0
   15.6418   20.0838    0.0000 C   0  0  0  0  0  0  0  0  0  0  0  0
   15.3929   18.6046    0.0000 C   0  0  0  0  0  0  0  0  0  0  0  0
   15.0498   17.1444    0.0000 C   0  0  0  0  0  0  0  0  0  0  0  0
   14.6138   15.7092    0.0000 C   0  0  0  0  0  0  0  0  0  0  0  0
   14.0867   14.3048    0.0000 C   0  0  0  0  0  0  0  0  0  0  0  0
   13.4707   12.9371    0.0000 C   0  0  0  0  0  0  0  0  0  0  0  0
   12.7684   11.6117    0.0000 C   0  0  0  0  0  0  0  0  0  0  0  0
   11.9826   10.3340    0.0000 C   0  0  0  0  0  0  0  0  0  0  0  0
   11.1166    9.1092    0.0000 C   0  0  0  0  0  0  0  0  0  0  0  0
   10.1738    7.9425    0.0000 C   0  0  0  0  0  0  0  0  0  0  0  0
    9.1583    6.8386    0.0000 C   0  0  0  0  0  0  0  0  0  0  0  0
    8.0741    5.8020    0.0000 C   0  0  0  0  0  0  0  0  0  0  0  0
    6.9257    4.8370    0.0000 C   0  0  0  0  0  0  0  0  0  0  0  0
    5.7179    3.9476    0.0000 C   0  0  0  0  0  0  0  0  0  0  0  0
    4.4555    3.1373    0.0000 C   0  0  0  0  0  0  0  0  0  0  0  0
    3.1439    2.4096    0.0000 C   0  0  0  0  0  0  0  0  0  0  0  0
    1.7883    1.7675    0.0000 C   0  0  0  0  0  0  0  0  0  0  0  0
    0.3943    1.2135    0.0000 C   0  0  0  0  0  0  0  0  0  0  0  0
    1.2760    0.0000    0.0000 C   0  0  0  0  0  0  0  0  0  0  0  0
    0.3943   -1.2135    0.0000 C   0  0  0  0  0  0  0  0  0  0  0  0
   -1.0323   -0.7500    0.0000 C   0  0  0  0  0  0  0  0  0  0  0  0
   -1.0323    0.7500    0.0000 C   0  0  0  0  0  0  0  0  0  0  0  0
  1  2  1  0
  2  3  1  0
  3  4  1  0
  4  5  1  0
  5  6  1  0
  6  7  1  0
  7  8  1  0
  8  9  1  0
  9 10  1  0
 10 11  1  0
 11 12  1  0
 12 13  1  0
 13 14  1  0
 14 15  1  0
 15 16  1  0
 16 17  1  0
 17 18  1  0
 18 19  1  0
 19 20  1  0
 20 21  1  0
 21 22  1  0
 22 23  1  0
 23 24  1  0
 24 25  1  0
 25 26  1  0
 26 27  1  0
 27 28  1  0
 28 29  1  0
 29 30  1  0
 30 31  1  0
 31 32  1  0
 32 33  1  0
 33 34  1  0
 34 35  1  0
 35 36  1  0
 36 37  1  0
 37 38  1  0
 38 39  1  0
 39 40  1  0
 40 41  1  0
 41 42  1  0
 42 43  1  0
 43 44  1  0
 44 45  1  0
 45 46  1  0
 46 47  1  0
 47 48  1  0
 48 49  1  0
 49 50  1  0
 50 51  1  0
 51 52  1  0
 52 53  1  0
 53 54  1  0
 54 55  1  0
 55 56  1  0
 56 57  1  0
 57 58  1  0
 58 59  1  0
 59 60  1  0
 60 61  1  0
 61 62  1  0
 62 63  1  0
 63 64  1  0
 64 65  1  0
 65 66  1  0
 66 67  1  0
 67 68  1  0
 68 69  1  0
 69 70  1  0
 70 71  1  0
 71 72  1  0
 72 73  1  0
 73 74  2  0
 74 75  1  0
 75 76  2  0
 76 77  1  0
 77 78  2  0
 78 79  1  0
 79 80  2  0
 80 81  1  0
 81 82  2  0
 82 83  1  0
 83 84  2  0
 84 85  1  0
 85 86  2  0
 86 87  1  0
 87 88  2  0
 88 89  1  0
 89 90  2  0
 90 91  1  0
 91 92  2  0
 92 93  1  0
 93 94  2  0
 94 95  1  0
 95 96  2  0
 96 97  1  0
 97 98  2  0
 98 99  1  0
 99100  2  0
100101  1  0
101102  2  0
102  2  1  0
102 98  1  0
M  END
>  <Title>  (1305) 
idABWGgen14

$$$$

     RDKit          2D

 27 30  0  0  0  0  0  0  0  0999 V2000
   -6.3650   -5.7215    0.0000 O   0  0  0  0  0  0  0  0  0  0  0  0
   -6.5218   -4.2298    0.0000 C   0  0  0  0  0  0  0  0  0  0  0  0
   -7.8921   -3.6196    0.0000 N   0  0  0  0  0  0  0  0  0  0  0  0
   -9.1056   -4.5013    0.0000 C   0  0  0  0  0  0  0  0  0  0  0  0
  -10.4760   -3.8912    0.0000 N   0  0  0  0  0  0  0  0  0  0  0  0
  -11.6895   -4.7729    0.0000 N   0  0  0  0  0  0  0  0  0  0  0  0
  -11.5327   -6.2647    0.0000 N   0  0  0  0  0  0  0  0  0  0  0  0
  -10.1624   -6.8748    0.0000 N   0  0  0  0  0  0  0  0  0  0  0  0
   -8.9488   -5.9931    0.0000 N   0  0  0  0  0  0  0  0  0  0  0  0
   -5.3083   -3.3481    0.0000 C   0  0  0  0  0  0  0  0  0  0  0  0
   -5.3083   -1.8481    0.0000 C   0  0  0  0  0  0  0  0  0  0  0  0
   -3.8817   -1.3846    0.0000 C   0  0  0  0  0  0  0  0  0  0  0  0
   -3.0000   -2.5981    0.0000 C   0  0  0  0  0  0  0  0  0  0  0  0
   -1.5000   -2.5981    0.0000 C   0  0  0  0  0  0  0  0  0  0  0  0
   -0.7500   -3.8971    0.0000 C   0  0  0  0  0  0  0  0  0  0  0  0
    0.7500   -3.8971    0.0000 C   0  0  0  0  0  0  0  0  0  0  0  0
    1.5000   -2.5981    0.0000 C   0  0  0  0  0  0  0  0  0  0  0  0
    3.0000   -2.5981    0.0000 O   0  0  0  0  0  0  0  0  0  0  0  0
    0.7500   -1.2990    0.0000 C   0  0  0  0  0  0  0  0  0  0  0  0
    1.5000    0.0000    0.0000 C   0  0  0  0  0  0  0  0  0  0  0  0
    0.7500    1.2990    0.0000 C   0  0  0  0  0  0  0  0  0  0  0  0
    1.5000    2.5981    0.0000 O   0  0  0  0  0  0  0  0  0  0  0  0
   -0.7500    1.2990    0.0000 C   0  0  0  0  0  0  0  0  0  0  0  0
   -1.5000    0.0000    0.0000 C   0  0  0  0  0  0  0  0  0  0  0  0
   -0.7500   -1.2990    0.0000 C   0  0  0  0  0  0  0  0  0  0  0  0
   -3.8817   -3.8116    0.0000 C   0  0  0  0  0  0  0  0  0  0  0  0
   -3.4182   -5.2382    0.0000 O   0  0  0  0  0  0  0  0  0  0  0  0
  1  2  2  0
  2  3  1  0
  3  4  1  0
  4  5  2  0
  5  6  1  0
  6  7  2  0
  7  8  1  0
  8  9  2  0
  2 10  1  0
 10 11  2  0
 11 12  1  0
 12 13  2  0
 13 14  1  0
 14 15  1  0
 15 16  2  0
 16 17  1  0
 17 18  1  0
 17 19  1  0
 19 20  2  0
 20 21  1  0
 21 22  1  0
 21 23  2  0
 23 24  1  0
 24 25  2  0
 13 26  1  0
 26 27  2  0
  9  4  1  0
 26 10  1  0
 25 14  1  0
 25 19  1  0
M  END
>  <Title>  (1306) 
idABWHgen14

$$$$

     RDKit          2D

 41 46  0  0  0  0  0  0  0  0999 V2000
   -1.3240   -6.3062    0.0000 C   0  0  0  0  0  0  0  0  0  0  0  0
   -0.7500   -4.9204    0.0000 C   0  0  0  0  0  0  0  0  0  0  0  0
    0.7500   -4.9204    0.0000 C   0  0  0  0  0  0  0  0  0  0  0  0
    1.8107   -3.8597    0.0000 C   0  0  0  0  0  0  0  0  0  0  0  0
    1.8107   -2.3597    0.0000 C   0  0  0  0  0  0  0  0  0  0  0  0
    3.1965   -1.7857    0.0000 C   0  0  0  0  0  0  0  0  0  0  0  0
    3.3923   -0.2985    0.0000 O   0  0  0  0  0  0  0  0  0  0  0  0
    4.3865   -2.6988    0.0000 N   0  0  0  0  0  0  0  0  0  0  0  0
    5.7723   -2.1248    0.0000 C   0  0  0  0  0  0  0  0  0  0  0  0
    6.1225   -0.6662    0.0000 N   0  0  0  0  0  0  0  0  0  0  0  0
    7.6179   -0.5485    0.0000 N   0  0  0  0  0  0  0  0  0  0  0  0
    8.1919   -1.9344    0.0000 N   0  0  0  0  0  0  0  0  0  0  0  0
    7.0513   -2.9085    0.0000 N   0  0  0  0  0  0  0  0  0  0  0  0
    7.1690   -4.4039    0.0000 N   0  0  0  0  0  0  0  0  0  0  0  0
    8.4479   -5.1877    0.0000 C   0  0  0  0  0  0  0  0  0  0  0  0
    8.0978   -6.6462    0.0000 C   0  0  0  0  0  0  0  0  0  0  0  0
    6.6024   -6.7639    0.0000 N   0  0  0  0  0  0  0  0  0  0  0  0
    5.8186   -8.0429    0.0000 C   0  0  0  0  0  0  0  0  0  0  0  0
    6.5344   -9.3611    0.0000 O   0  0  0  0  0  0  0  0  0  0  0  0
    4.3192   -8.0036    0.0000 N   0  0  0  0  0  0  0  0  0  0  0  0
    3.5354   -9.2826    0.0000 C   0  0  0  0  0  0  0  0  0  0  0  0
    2.0359   -9.2433    0.0000 N   0  0  0  0  0  0  0  0  0  0  0  0
    1.2522  -10.5223    0.0000 N   0  0  0  0  0  0  0  0  0  0  0  0
    1.9679  -11.8405    0.0000 N   0  0  0  0  0  0  0  0  0  0  0  0
    3.4674  -11.8797    0.0000 N   0  0  0  0  0  0  0  0  0  0  0  0
    4.2512  -10.6008    0.0000 N   0  0  0  0  0  0  0  0  0  0  0  0
    6.0284   -5.3781    0.0000 C   0  0  0  0  0  0  0  0  0  0  0  0
    4.5698   -5.0279    0.0000 O   0  0  0  0  0  0  0  0  0  0  0  0
    0.7500   -1.2990    0.0000 C   0  0  0  0  0  0  0  0  0  0  0  0
    1.5000    0.0000    0.0000 C   0  0  0  0  0  0  0  0  0  0  0  0
    0.7500    1.2990    0.0000 C   0  0  0  0  0  0  0  0  0  0  0  0
   -0.7500    1.2990    0.0000 C   0  0  0  0  0  0  0  0  0  0  0  0
   -1.5000    0.0000    0.0000 C   0  0  0  0  0  0  0  0  0  0  0  0
   -0.7500   -1.2990    0.0000 C   0  0  0  0  0  0  0  0  0  0  0  0
   -1.8107   -2.3597    0.0000 C   0  0  0  0  0  0  0  0  0  0  0  0
   -3.1097   -1.6097    0.0000 C   0  0  0  0  0  0  0  0  0  0  0  0
   -4.4087   -2.3597    0.0000 C   0  0  0  0  0  0  0  0  0  0  0  0
   -4.4087   -3.8597    0.0000 C   0  0  0  0  0  0  0  0  0  0  0  0
   -5.7078   -4.6097    0.0000 O   0  0  0  0  0  0  0  0  0  0  0  0
   -3.1097   -4.6097    0.0000 N   0  0  0  0  0  0  0  0  0  0  0  0
   -1.8107   -3.8597    0.0000 C   0  0  0  0  0  0  0  0  0  0  0  0
  1  2  1  0
  2  3  2  0
  3  4  1  0
  4  5  2  0
  5  6  1  0
  6  7  2  0
  6  8  1  0
  8  9  1  0
  9 10  2  0
 10 11  1  0
 11 12  2  0
 12 13  1  0
 13 14  1  0
 14 15  1  0
 15 16  1  0
 16 17  1  0
 17 18  1  0
 18 19  2  0
 18 20  1  0
 20 21  1  0
 21 22  2  0
 22 23  1  0
 23 24  2  0
 24 25  1  0
 25 26  2  0
 17 27  1  0
 27 28  2  0
  5 29  1  0
 29 30  2  0
 30 31  1  0
 31 32  2  0
 32 33  1  0
 33 34  2  0
 34 35  1  0
 35 36  2  0
 36 37  1  0
 37 38  2  0
 38 39  1  0
 38 40  1  0
 40 41  2  0
 41  2  1  0
 13  9  1  0
 27 14  1  0
 34 29  1  0
 41 35  1  0
 26 21  1  0
M  END
>  <Title>  (1307) 
idABWIgen14

$$$$

     RDKit          2D

 10  9  0  0  0  0  0  0  0  0999 V2000
    0.0000    0.0000    0.0000 C   0  0  0  0  0  0  0  0  0  0  0  0
    1.2990    0.7500    0.0000 C   0  0  0  0  0  0  0  0  0  0  0  0
    2.5981   -0.0000    0.0000 C   0  0  0  0  0  0  0  0  0  0  0  0
    3.8971    0.7500    0.0000 C   0  0  0  0  0  0  0  0  0  0  0  0
    5.1962   -0.0000    0.0000 C   0  0  0  0  0  0  0  0  0  0  0  0
    3.8971    2.2500    0.0000 C   0  0  0  0  0  0  0  0  0  0  0  0
    5.1962    3.0000    0.0000 C   0  0  0  0  0  0  0  0  0  0  0  0
    5.9462    1.7010    0.0000 C   0  0  0  0  0  0  0  0  0  0  0  0
    4.4462    4.2990    0.0000 C   0  0  0  0  0  0  0  0  0  0  0  0
    6.4952    3.7500    0.0000 O   0  0  0  0  0  0  0  0  0  0  0  0
  1  2  1  0
  2  3  1  0
  3  4  1  0
  4  5  1  0
  4  6  1  0
  6  7  1  0
  7  8  1  0
  7  9  1  0
  7 10  1  0
M  END
>  <Title>  (1308) 
idABWJgen14

$$$$

     RDKit          2D

  7  6  0  0  0  0  0  0  0  0999 V2000
    0.0000    0.0000    0.0000 C   0  0  0  0  0  0  0  0  0  0  0  0
    1.2990    0.7500    0.0000 C   0  0  0  0  0  0  0  0  0  0  0  0
    2.5981   -0.0000    0.0000 C   0  0  0  0  0  0  0  0  0  0  0  0
    3.8971    0.7500    0.0000 C   0  0  0  0  0  0  0  0  0  0  0  0
    4.6471   -0.5490    0.0000 C   0  0  0  0  0  0  0  0  0  0  0  0
    3.1471    2.0490    0.0000 C   0  0  0  0  0  0  0  0  0  0  0  0
    5.1962    1.5000    0.0000 C   0  0  0  0  0  0  0  0  0  0  0  0
  1  2  1  0
  2  3  1  0
  3  4  1  0
  4  5  1  0
  4  6  1  0
  4  7  1  0
M  END
>  <Title>  (1309) 
idABWKgen14

$$$$

     RDKit          2D

 16 15  0  0  0  0  0  0  0  0999 V2000
    0.0000    0.0000    0.0000 C   0  0  0  0  0  0  0  0  0  0  0  0
    1.2990    0.7500    0.0000 C   0  0  0  0  0  0  0  0  0  0  0  0
    2.5981   -0.0000    0.0000 C   0  0  0  0  0  0  0  0  0  0  0  0
    3.8971    0.7500    0.0000 N   0  0  0  0  0  0  0  0  0  0  0  0
    5.1962   -0.0000    0.0000 C   0  0  0  0  0  0  0  0  0  0  0  0
    6.4952    0.7500    0.0000 C   0  0  0  0  0  0  0  0  0  0  0  0
    7.7942   -0.0000    0.0000 C   0  0  0  0  0  0  0  0  0  0  0  0
    9.0933    0.7500    0.0000 C   0  0  0  0  0  0  0  0  0  0  0  0
   10.3923   -0.0000    0.0000 C   0  0  0  0  0  0  0  0  0  0  0  0
   11.6913    0.7500    0.0000 N   0  0  0  0  0  0  0  0  0  0  0  0
   12.9904   -0.0000    0.0000 C   0  0  0  0  0  0  0  0  0  0  0  0
   12.9904   -1.5000    0.0000 O   0  0  0  0  0  0  0  0  0  0  0  0
   14.2894    0.7500    0.0000 N   0  0  0  0  0  0  0  0  0  0  0  0
   15.5885   -0.0000    0.0000 C   0  0  0  0  0  0  0  0  0  0  0  0
   16.8875    0.7500    0.0000 C   0  0  0  0  0  0  0  0  0  0  0  0
   15.5885   -1.5000    0.0000 C   0  0  0  0  0  0  0  0  0  0  0  0
  1  2  1  0
  2  3  2  3
  3  4  1  0
  4  5  1  0
  5  6  1  0
  6  7  2  3
  7  8  1  0
  8  9  1  0
  9 10  1  0
 10 11  1  0
 11 12  2  0
 11 13  1  0
 13 14  1  0
 14 15  1  0
 14 16  1  0
M  END
>  <Title>  (1310) 
idABWLgen14

$$$$

     RDKit          2D

 48 54  0  0  0  0  0  0  0  0999 V2000
   -4.1597   -9.6667    0.0000 C   0  0  0  0  0  0  0  0  0  0  0  0
   -2.6612   -9.7340    0.0000 C   0  0  0  0  0  0  0  0  0  0  0  0
   -2.0717  -11.1133    0.0000 C   0  0  0  0  0  0  0  0  0  0  0  0
   -0.6257  -11.5123    0.0000 C   0  0  0  0  0  0  0  0  0  0  0  0
    0.5878  -10.6307    0.0000 C   0  0  0  0  0  0  0  0  0  0  0  0
    0.6551   -9.1322    0.0000 C   0  0  0  0  0  0  0  0  0  0  0  0
   -0.4745   -8.1453    0.0000 C   0  0  0  0  0  0  0  0  0  0  0  0
   -1.9504   -8.4131    0.0000 C   0  0  0  0  0  0  0  0  0  0  0  0
   -2.8321   -7.1996    0.0000 C   0  0  0  0  0  0  0  0  0  0  0  0
   -4.3238   -7.3564    0.0000 O   0  0  0  0  0  0  0  0  0  0  0  0
   -2.2220   -5.8293    0.0000 N   0  0  0  0  0  0  0  0  0  0  0  0
   -3.1036   -4.6157    0.0000 C   0  0  0  0  0  0  0  0  0  0  0  0
   -4.6036   -4.6157    0.0000 C   0  0  0  0  0  0  0  0  0  0  0  0
   -5.0672   -3.1891    0.0000 N   0  0  0  0  0  0  0  0  0  0  0  0
   -3.8536   -2.3075    0.0000 N   0  0  0  0  0  0  0  0  0  0  0  0
   -2.6401   -3.1891    0.0000 N   0  0  0  0  0  0  0  0  0  0  0  0
   -1.2135   -2.7256    0.0000 N   0  0  0  0  0  0  0  0  0  0  0  0
   -0.0000   -3.6073    0.0000 C   0  0  0  0  0  0  0  0  0  0  0  0
    1.2135   -2.7256    0.0000 C   0  0  0  0  0  0  0  0  0  0  0  0
    2.6401   -3.1891    0.0000 C   0  0  0  0  0  0  0  0  0  0  0  0
    3.7548   -2.1855    0.0000 O   0  0  0  0  0  0  0  0  0  0  0  0
    2.9520   -4.6564    0.0000 N   0  0  0  0  0  0  0  0  0  0  0  0
    4.3786   -5.1199    0.0000 C   0  0  0  0  0  0  0  0  0  0  0  0
    5.5921   -4.2382    0.0000 N   0  0  0  0  0  0  0  0  0  0  0  0
    6.8056   -5.1199    0.0000 N   0  0  0  0  0  0  0  0  0  0  0  0
    6.3421   -6.5465    0.0000 N   0  0  0  0  0  0  0  0  0  0  0  0
    4.8421   -6.5465    0.0000 N   0  0  0  0  0  0  0  0  0  0  0  0
    3.9604   -7.7600    0.0000 N   0  0  0  0  0  0  0  0  0  0  0  0
    2.4604   -7.7600    0.0000 C   0  0  0  0  0  0  0  0  0  0  0  0
    1.9969   -9.1866    0.0000 C   0  0  0  0  0  0  0  0  0  0  0  0
    3.2104  -10.0683    0.0000 N   0  0  0  0  0  0  0  0  0  0  0  0
    3.2104  -11.5683    0.0000 C   0  0  0  0  0  0  0  0  0  0  0  0
    4.5094  -12.3183    0.0000 O   0  0  0  0  0  0  0  0  0  0  0  0
    1.9114  -12.3183    0.0000 N   0  0  0  0  0  0  0  0  0  0  0  0
    1.9114  -13.8183    0.0000 C   0  0  0  0  0  0  0  0  0  0  0  0
    3.2104  -14.5683    0.0000 N   0  0  0  0  0  0  0  0  0  0  0  0
    3.2104  -16.0683    0.0000 N   0  0  0  0  0  0  0  0  0  0  0  0
    1.9114  -16.8183    0.0000 N   0  0  0  0  0  0  0  0  0  0  0  0
    0.6123  -16.0683    0.0000 N   0  0  0  0  0  0  0  0  0  0  0  0
    0.6123  -14.5683    0.0000 N   0  0  0  0  0  0  0  0  0  0  0  0
    4.4239   -9.1866    0.0000 C   0  0  0  0  0  0  0  0  0  0  0  0
    5.8505   -9.6501    0.0000 O   0  0  0  0  0  0  0  0  0  0  0  0
    0.7500   -1.2990    0.0000 C   0  0  0  0  0  0  0  0  0  0  0  0
    1.5000    0.0000    0.0000 C   0  0  0  0  0  0  0  0  0  0  0  0
    0.7500    1.2990    0.0000 C   0  0  0  0  0  0  0  0  0  0  0  0
   -0.7500    1.2990    0.0000 C   0  0  0  0  0  0  0  0  0  0  0  0
   -1.5000    0.0000    0.0000 C   0  0  0  0  0  0  0  0  0  0  0  0
   -0.7500   -1.2990    0.0000 C   0  0  0  0  0  0  0  0  0  0  0  0
  1  2  1  0
  2  3  1  0
  3  4  1  0
  4  5  1  0
  5  6  1  0
  6  7  1  0
  7  8  1  0
  8  9  1  0
  9 10  2  0
  9 11  1  0
 11 12  1  0
 12 13  2  0
 13 14  1  0
 14 15  2  0
 15 16  1  0
 16 17  1  0
 17 18  1  0
 18 19  2  0
 19 20  1  0
 20 21  2  0
 20 22  1  0
 22 23  1  0
 23 24  2  0
 24 25  1  0
 25 26  2  0
 26 27  1  0
 27 28  1  0
 28 29  1  0
 29 30  1  0
 30 31  1  0
 31 32  1  0
 32 33  2  0
 32 34  1  0
 34 35  1  0
 35 36  2  0
 36 37  1  0
 37 38  2  0
 38 39  1  0
 39 40  2  0
 31 41  1  0
 41 42  2  0
 19 43  1  0
 43 44  2  0
 44 45  1  0
 45 46  2  0
 46 47  1  0
 47 48  2  0
  8  2  1  0
 16 12  1  0
 48 17  1  0
 27 23  1  0
 41 28  1  0
 48 43  1  0
 40 35  1  0
M  END
>  <Title>  (1311) 
idABWMgen14

$$$$

     RDKit          2D

  8  7  0  0  0  0  0  0  0  0999 V2000
    0.0000    0.0000    0.0000 C   0  0  0  0  0  0  0  0  0  0  0  0
    1.2990    0.7500    0.0000 C   0  0  0  0  0  0  0  0  0  0  0  0
    2.5981    1.5000    0.0000 C   0  0  0  0  0  0  0  0  0  0  0  0
    2.0490   -0.5490    0.0000 C   0  0  0  0  0  0  0  0  0  0  0  0
    0.5490    2.0490    0.0000 N   0  0  0  0  0  0  0  0  0  0  0  0
    1.2990    3.3481    0.0000 C   0  0  0  0  0  0  0  0  0  0  0  0
    0.5490    4.6471    0.0000 C   0  0  0  0  0  0  0  0  0  0  0  0
    1.2990    5.9462    0.0000 N   0  0  0  0  0  0  0  0  0  0  0  0
  1  2  1  0
  2  3  1  0
  2  4  1  0
  2  5  1  0
  5  6  1  0
  6  7  1  0
  7  8  1  0
M  END
>  <Title>  (1312) 
idABWNgen14

$$$$

     RDKit          2D

  8  8  0  0  0  0  0  0  0  0999 V2000
    3.7500   -1.2990    0.0000 O   0  0  0  0  0  0  0  0  0  0  0  0
    3.0000    0.0000    0.0000 C   0  0  0  0  0  0  0  0  0  0  0  0
    1.5000    0.0000    0.0000 C   0  0  0  0  0  0  0  0  0  0  0  0
    0.7500   -1.2990    0.0000 C   0  0  0  0  0  0  0  0  0  0  0  0
   -0.7500   -1.2990    0.0000 C   0  0  0  0  0  0  0  0  0  0  0  0
   -1.5000    0.0000    0.0000 C   0  0  0  0  0  0  0  0  0  0  0  0
   -0.7500    1.2990    0.0000 C   0  0  0  0  0  0  0  0  0  0  0  0
    0.7500    1.2990    0.0000 C   0  0  0  0  0  0  0  0  0  0  0  0
  1  2  1  0
  2  3  1  0
  3  4  2  0
  4  5  1  0
  5  6  2  0
  6  7  1  0
  7  8  2  0
  8  3  1  0
M  END
>  <Title>  (1313) 
idABWOgen14

$$$$

     RDKit          2D

 11 11  0  0  0  0  0  0  0  0999 V2000
    6.0000    0.0000    0.0000 O   0  0  0  0  0  0  0  0  0  0  0  0
    5.2500   -1.2990    0.0000 C   0  0  0  0  0  0  0  0  0  0  0  0
    6.0000   -2.5981    0.0000 O   0  0  0  0  0  0  0  0  0  0  0  0
    3.7500   -1.2990    0.0000 C   0  0  0  0  0  0  0  0  0  0  0  0
    3.0000    0.0000    0.0000 C   0  0  0  0  0  0  0  0  0  0  0  0
    1.5000    0.0000    0.0000 C   0  0  0  0  0  0  0  0  0  0  0  0
    0.7500   -1.2990    0.0000 C   0  0  0  0  0  0  0  0  0  0  0  0
   -0.7500   -1.2990    0.0000 C   0  0  0  0  0  0  0  0  0  0  0  0
   -1.5000    0.0000    0.0000 C   0  0  0  0  0  0  0  0  0  0  0  0
   -0.7500    1.2990    0.0000 C   0  0  0  0  0  0  0  0  0  0  0  0
    0.7500    1.2990    0.0000 N   0  0  0  0  0  0  0  0  0  0  0  0
  1  2  2  0
  2  3  1  0
  2  4  1  0
  4  5  1  0
  5  6  1  0
  6  7  2  0
  7  8  1  0
  8  9  1  0
  9 10  1  0
 10 11  2  0
 11  6  1  0
M  END
>  <Title>  (1314) 
idABWPgen14

$$$$

     RDKit          2D

 17 18  0  0  0  0  0  0  0  0999 V2000
    3.0000    0.0000    0.0000 C   0  0  0  0  0  0  0  0  0  0  0  0
    1.5000    0.0000    0.0000 C   0  0  0  0  0  0  0  0  0  0  0  0
    0.7500   -1.2990    0.0000 C   0  0  0  0  0  0  0  0  0  0  0  0
   -0.7500   -1.2990    0.0000 C   0  0  0  0  0  0  0  0  0  0  0  0
   -1.5000    0.0000    0.0000 C   0  0  0  0  0  0  0  0  0  0  0  0
   -0.7500    1.2990    0.0000 C   0  0  0  0  0  0  0  0  0  0  0  0
    0.7500    1.2990    0.0000 C   0  0  0  0  0  0  0  0  0  0  0  0
    1.5000    2.5981    0.0000 C   0  0  0  0  0  0  0  0  0  0  0  0
    3.0000    2.5981    0.0000 O   0  0  0  0  0  0  0  0  0  0  0  0
    0.7500    3.8971    0.0000 N   0  0  0  0  0  0  0  0  0  0  0  0
    1.5000    5.1962    0.0000 C   0  0  0  0  0  0  0  0  0  0  0  0
    0.7500    6.4952    0.0000 C   0  0  0  0  0  0  0  0  0  0  0  0
    1.5000    7.7942    0.0000 C   0  0  0  0  0  0  0  0  0  0  0  0
    0.7500    9.0933    0.0000 C   0  0  0  0  0  0  0  0  0  0  0  0
   -0.7500    9.0933    0.0000 C   0  0  0  0  0  0  0  0  0  0  0  0
   -1.5000    7.7942    0.0000 N   0  0  0  0  0  0  0  0  0  0  0  0
   -0.7500    6.4952    0.0000 C   0  0  0  0  0  0  0  0  0  0  0  0
  1  2  1  0
  2  3  1  0
  3  4  1  0
  4  5  1  0
  5  6  1  0
  6  7  1  0
  7  8  1  0
  8  9  2  0
  8 10  1  0
 10 11  1  0
 11 12  1  0
 12 13  2  0
 13 14  1  0
 14 15  2  0
 15 16  1  0
 16 17  2  0
  7  2  1  0
 17 12  1  0
M  END
>  <Title>  (1315) 
idABWQgen14

$$$$

     RDKit          2D

 14 13  0  0  0  0  0  0  0  0999 V2000
    0.0000    0.0000    0.0000 C   0  0  0  0  0  0  0  0  0  0  0  0
   -0.0000   -1.5000    0.0000 C   0  0  0  0  0  0  0  0  0  0  0  0
   -0.0000   -3.0000    0.0000 C   0  0  0  0  0  0  0  0  0  0  0  0
   -0.0000   -4.5000    0.0000 C   0  0  0  0  0  0  0  0  0  0  0  0
   -0.0000   -6.0000    0.0000 C   0  0  0  0  0  0  0  0  0  0  0  0
   -0.0000   -7.5000    0.0000 C   0  0  0  0  0  0  0  0  0  0  0  0
   -0.0000   -9.0000    0.0000 C   0  0  0  0  0  0  0  0  0  0  0  0
   -0.0000  -10.5000    0.0000 C   0  0  0  0  0  0  0  0  0  0  0  0
   -0.0000  -12.0000    0.0000 C   0  0  0  0  0  0  0  0  0  0  0  0
   -0.0000  -13.5000    0.0000 C   0  0  0  0  0  0  0  0  0  0  0  0
   -0.0000  -15.0000    0.0000 C   0  0  0  0  0  0  0  0  0  0  0  0
    1.2990  -15.7500    0.0000 C   0  0  0  0  0  0  0  0  0  0  0  0
    1.2990  -17.2500    0.0000 C   0  0  0  0  0  0  0  0  0  0  0  0
    2.5981  -18.0000    0.0000 C   0  0  0  0  0  0  0  0  0  0  0  0
  1  2  3  0
  2  3  1  0
  3  4  3  0
  4  5  1  0
  5  6  3  0
  6  7  1  0
  7  8  3  0
  8  9  1  0
  9 10  3  0
 10 11  1  0
 11 12  1  0
 12 13  2  3
 13 14  1  0
M  END
>  <Title>  (1316) 
idABWRgen14

$$$$

     RDKit          2D

 21 23  0  0  0  0  0  0  0  0999 V2000
   10.0355    0.6881    0.0000 C   0  0  0  0  0  0  0  0  0  0  0  0
    8.5683    0.3762    0.0000 C   0  0  0  0  0  0  0  0  0  0  0  0
    7.4536    1.3799    0.0000 C   0  0  0  0  0  0  0  0  0  0  0  0
    6.1545    0.6299    0.0000 C   0  0  0  0  0  0  0  0  0  0  0  0
    6.4664   -0.8373    0.0000 C   0  0  0  0  0  0  0  0  0  0  0  0
    5.4627   -1.9520    0.0000 C   0  0  0  0  0  0  0  0  0  0  0  0
    5.9262   -3.3786    0.0000 O   0  0  0  0  0  0  0  0  0  0  0  0
    3.9955   -1.6402    0.0000 N   0  0  0  0  0  0  0  0  0  0  0  0
    2.9918   -2.7549    0.0000 C   0  0  0  0  0  0  0  0  0  0  0  0
    3.3037   -4.2221    0.0000 N   0  0  0  0  0  0  0  0  0  0  0  0
    2.0046   -4.9721    0.0000 N   0  0  0  0  0  0  0  0  0  0  0  0
    0.8899   -3.9684    0.0000 N   0  0  0  0  0  0  0  0  0  0  0  0
    1.5000   -2.5981    0.0000 N   0  0  0  0  0  0  0  0  0  0  0  0
    0.7500   -1.2990    0.0000 C   0  0  0  0  0  0  0  0  0  0  0  0
    1.5000    0.0000    0.0000 C   0  0  0  0  0  0  0  0  0  0  0  0
    0.7500    1.2990    0.0000 C   0  0  0  0  0  0  0  0  0  0  0  0
   -0.7500    1.2990    0.0000 C   0  0  0  0  0  0  0  0  0  0  0  0
   -1.5000    2.5981    0.0000 O   0  0  0  0  0  0  0  0  0  0  0  0
   -1.5000    0.0000    0.0000 C   0  0  0  0  0  0  0  0  0  0  0  0
   -0.7500   -1.2990    0.0000 C   0  0  0  0  0  0  0  0  0  0  0  0
    7.9582   -0.9941    0.0000 C   0  0  0  0  0  0  0  0  0  0  0  0
  1  2  1  0
  2  3  1  0
  3  4  2  0
  4  5  1  0
  5  6  1  0
  6  7  2  0
  6  8  1  0
  8  9  1  0
  9 10  2  0
 10 11  1  0
 11 12  2  0
 12 13  1  0
 13 14  1  0
 14 15  2  0
 15 16  1  0
 16 17  2  0
 17 18  1  0
 17 19  1  0
 19 20  2  0
  5 21  2  0
 21  2  1  0
 13  9  1  0
 20 14  1  0
M  END
>  <Title>  (1317) 
idABWSgen14

$$$$

     RDKit          2D

  9  8  0  0  0  0  0  0  0  0999 V2000
    0.0000    0.0000    0.0000 C   0  0  0  0  0  0  0  0  0  0  0  0
   -0.0000   -1.5000    0.0000 C   0  0  0  0  0  0  0  0  0  0  0  0
   -0.0000   -3.0000    0.0000 C   0  0  0  0  0  0  0  0  0  0  0  0
   -0.0000   -4.5000    0.0000 C   0  0  0  0  0  0  0  0  0  0  0  0
   -0.0000   -6.0000    0.0000 C   0  0  0  0  0  0  0  0  0  0  0  0
   -0.0000   -7.5000    0.0000 C   0  0  0  0  0  0  0  0  0  0  0  0
    1.5000   -6.0000    0.0000 O   0  0  0  0  0  0  0  0  0  0  0  0
   -1.5000   -6.0000    0.0000 N   0  0  0  0  0  0  0  0  0  0  0  0
   -2.2500   -7.2990    0.0000 C   0  0  0  0  0  0  0  0  0  0  0  0
  1  2  3  0
  2  3  1  0
  3  4  3  0
  4  5  1  0
  5  6  1  0
  5  7  1  0
  5  8  1  0
  8  9  1  0
M  END
>  <Title>  (1318) 
idABWTgen14

$$$$

     RDKit          2D

  8  7  0  0  0  0  0  0  0  0999 V2000
    0.0000    0.0000    0.0000 C   0  0  0  0  0  0  0  0  0  0  0  0
    1.2990    0.7500    0.0000 C   0  0  0  0  0  0  0  0  0  0  0  0
    2.5981   -0.0000    0.0000 C   0  0  0  0  0  0  0  0  0  0  0  0
    3.8971    0.7500    0.0000 C   0  0  0  0  0  0  0  0  0  0  0  0
    5.1962   -0.0000    0.0000 C   0  0  0  0  0  0  0  0  0  0  0  0
    6.4952    0.7500    0.0000 C   0  0  0  0  0  0  0  0  0  0  0  0
    7.7942   -0.0000    0.0000 C   0  0  0  0  0  0  0  0  0  0  0  0
    6.4952    2.2500    0.0000 N   0  0  0  0  0  0  0  0  0  0  0  0
  1  2  1  0
  2  3  1  0
  3  4  1  0
  4  5  1  0
  5  6  1  0
  6  7  1  0
  6  8  1  0
M  END
>  <Title>  (1319) 
idABWUgen14

$$$$

     RDKit          2D

 42 47  0  0  0  0  0  0  0  0999 V2000
   -2.3737   -6.1885    0.0000 C   0  0  0  0  0  0  0  0  0  0  0  0
   -1.4095   -5.0395    0.0000 C   0  0  0  0  0  0  0  0  0  0  0  0
   -0.0000   -5.5525    0.0000 C   0  0  0  0  0  0  0  0  0  0  0  0
    1.4095   -5.0395    0.0000 C   0  0  0  0  0  0  0  0  0  0  0  0
    2.1595   -3.7404    0.0000 C   0  0  0  0  0  0  0  0  0  0  0  0
    1.8991   -2.2632    0.0000 C   0  0  0  0  0  0  0  0  0  0  0  0
    3.1981   -1.5132    0.0000 C   0  0  0  0  0  0  0  0  0  0  0  0
    3.1981   -0.0132    0.0000 O   0  0  0  0  0  0  0  0  0  0  0  0
    4.4971   -2.2632    0.0000 N   0  0  0  0  0  0  0  0  0  0  0  0
    5.7962   -1.5132    0.0000 C   0  0  0  0  0  0  0  0  0  0  0  0
    5.9530   -0.0214    0.0000 N   0  0  0  0  0  0  0  0  0  0  0  0
    7.4202    0.2904    0.0000 N   0  0  0  0  0  0  0  0  0  0  0  0
    8.1702   -1.0086    0.0000 N   0  0  0  0  0  0  0  0  0  0  0  0
    7.1665   -2.1233    0.0000 N   0  0  0  0  0  0  0  0  0  0  0  0
    7.4784   -3.5905    0.0000 C   0  0  0  0  0  0  0  0  0  0  0  0
    8.8487   -4.2007    0.0000 C   0  0  0  0  0  0  0  0  0  0  0  0
    8.6919   -5.6924    0.0000 C   0  0  0  0  0  0  0  0  0  0  0  0
    7.2247   -6.0043    0.0000 C   0  0  0  0  0  0  0  0  0  0  0  0
    6.6146   -7.3746    0.0000 O   0  0  0  0  0  0  0  0  0  0  0  0
    5.1228   -7.5314    0.0000 C   0  0  0  0  0  0  0  0  0  0  0  0
    4.2411   -6.3179    0.0000 O   0  0  0  0  0  0  0  0  0  0  0  0
    4.5127   -8.9017    0.0000 N   0  0  0  0  0  0  0  0  0  0  0  0
    3.0209   -9.0585    0.0000 C   0  0  0  0  0  0  0  0  0  0  0  0
    2.1392   -7.8450    0.0000 N   0  0  0  0  0  0  0  0  0  0  0  0
    0.6474   -8.0018    0.0000 N   0  0  0  0  0  0  0  0  0  0  0  0
    0.0373   -9.3721    0.0000 N   0  0  0  0  0  0  0  0  0  0  0  0
    0.9190  -10.5856    0.0000 N   0  0  0  0  0  0  0  0  0  0  0  0
    2.4108  -10.4288    0.0000 N   0  0  0  0  0  0  0  0  0  0  0  0
    6.4747   -4.7053    0.0000 C   0  0  0  0  0  0  0  0  0  0  0  0
    4.9829   -4.5485    0.0000 O   0  0  0  0  0  0  0  0  0  0  0  0
    0.7500   -1.2990    0.0000 C   0  0  0  0  0  0  0  0  0  0  0  0
    1.5000    0.0000    0.0000 C   0  0  0  0  0  0  0  0  0  0  0  0
    0.7500    1.2990    0.0000 C   0  0  0  0  0  0  0  0  0  0  0  0
   -0.7500    1.2990    0.0000 C   0  0  0  0  0  0  0  0  0  0  0  0
   -1.5000    0.0000    0.0000 C   0  0  0  0  0  0  0  0  0  0  0  0
   -0.7500   -1.2990    0.0000 C   0  0  0  0  0  0  0  0  0  0  0  0
   -1.8991   -2.2632    0.0000 C   0  0  0  0  0  0  0  0  0  0  0  0
   -3.0481   -1.2990    0.0000 C   0  0  0  0  0  0  0  0  0  0  0  0
   -4.4577   -1.8121    0.0000 C   0  0  0  0  0  0  0  0  0  0  0  0
   -4.7181   -3.2893    0.0000 C   0  0  0  0  0  0  0  0  0  0  0  0
   -3.5691   -4.2535    0.0000 C   0  0  0  0  0  0  0  0  0  0  0  0
   -2.1595   -3.7404    0.0000 C   0  0  0  0  0  0  0  0  0  0  0  0
  1  2  1  0
  2  3  1  0
  3  4  1  0
  4  5  1  0
  5  6  1  0
  6  7  1  0
  7  8  2  0
  7  9  1  0
  9 10  1  0
 10 11  2  0
 11 12  1  0
 12 13  2  0
 13 14  1  0
 14 15  1  0
 15 16  2  0
 16 17  1  0
 17 18  2  0
 18 19  1  0
 19 20  1  0
 20 21  2  0
 20 22  1  0
 22 23  1  0
 23 24  2  0
 24 25  1  0
 25 26  2  0
 26 27  1  0
 27 28  2  0
 18 29  1  0
 29 30  2  0
  6 31  1  0
 31 32  2  0
 32 33  1  0
 33 34  2  0
 34 35  1  0
 35 36  2  0
 36 37  1  0
 37 38  2  0
 38 39  1  0
 39 40  2  0
 40 41  1  0
 41 42  2  0
 42  2  1  0
 14 10  1  0
 29 15  1  0
 36 31  1  0
 42 37  1  0
 28 23  1  0
M  END
>  <Title>  (1320) 
idABWVgen14

$$$$

     RDKit          2D

 10 10  0  0  0  0  0  0  0  0999 V2000
    6.7500   -1.2990    0.0000 C   0  0  0  0  0  0  0  0  0  0  0  0
    5.2500   -1.2990    0.0000 C   0  0  0  0  0  0  0  0  0  0  0  0
    3.7500   -1.2990    0.0000 C   0  0  0  0  0  0  0  0  0  0  0  0
    3.0000    0.0000    0.0000 C   0  0  0  0  0  0  0  0  0  0  0  0
    1.5000    0.0000    0.0000 C   0  0  0  0  0  0  0  0  0  0  0  0
    0.7500   -1.2990    0.0000 C   0  0  0  0  0  0  0  0  0  0  0  0
   -0.7500   -1.2990    0.0000 C   0  0  0  0  0  0  0  0  0  0  0  0
   -1.5000    0.0000    0.0000 C   0  0  0  0  0  0  0  0  0  0  0  0
   -0.7500    1.2990    0.0000 N   0  0  0  0  0  0  0  0  0  0  0  0
    0.7500    1.2990    0.0000 C   0  0  0  0  0  0  0  0  0  0  0  0
  1  2  3  0
  2  3  1  0
  3  4  1  0
  4  5  1  0
  5  6  2  0
  6  7  1  0
  7  8  2  0
  8  9  1  0
  9 10  2  0
 10  5  1  0
M  END
>  <Title>  (1321) 
idABWWgen14

$$$$

     RDKit          2D

 33 37  0  0  0  0  0  0  0  0999 V2000
   -2.6401   -3.1891    0.0000 C   0  0  0  0  0  0  0  0  0  0  0  0
   -1.2135   -2.7256    0.0000 C   0  0  0  0  0  0  0  0  0  0  0  0
   -0.0000   -3.6073    0.0000 C   0  0  0  0  0  0  0  0  0  0  0  0
    1.2135   -2.7256    0.0000 C   0  0  0  0  0  0  0  0  0  0  0  0
    2.6401   -3.1891    0.0000 C   0  0  0  0  0  0  0  0  0  0  0  0
    3.7548   -2.1855    0.0000 O   0  0  0  0  0  0  0  0  0  0  0  0
    2.9520   -4.6564    0.0000 N   0  0  0  0  0  0  0  0  0  0  0  0
    4.3786   -5.1199    0.0000 C   0  0  0  0  0  0  0  0  0  0  0  0
    5.5921   -4.2382    0.0000 N   0  0  0  0  0  0  0  0  0  0  0  0
    6.8056   -5.1199    0.0000 N   0  0  0  0  0  0  0  0  0  0  0  0
    6.3421   -6.5465    0.0000 N   0  0  0  0  0  0  0  0  0  0  0  0
    4.8421   -6.5465    0.0000 N   0  0  0  0  0  0  0  0  0  0  0  0
    3.9604   -7.7600    0.0000 N   0  0  0  0  0  0  0  0  0  0  0  0
    4.4239   -9.1866    0.0000 C   0  0  0  0  0  0  0  0  0  0  0  0
    3.2104  -10.0683    0.0000 C   0  0  0  0  0  0  0  0  0  0  0  0
    1.9969   -9.1866    0.0000 N   0  0  0  0  0  0  0  0  0  0  0  0
    0.5703   -9.6501    0.0000 C   0  0  0  0  0  0  0  0  0  0  0  0
    0.2584  -11.1173    0.0000 O   0  0  0  0  0  0  0  0  0  0  0  0
   -0.5444   -8.6464    0.0000 N   0  0  0  0  0  0  0  0  0  0  0  0
   -1.9710   -9.1099    0.0000 C   0  0  0  0  0  0  0  0  0  0  0  0
   -3.0857   -8.1062    0.0000 N   0  0  0  0  0  0  0  0  0  0  0  0
   -4.5123   -8.5698    0.0000 N   0  0  0  0  0  0  0  0  0  0  0  0
   -4.8242  -10.0370    0.0000 N   0  0  0  0  0  0  0  0  0  0  0  0
   -3.7095  -11.0407    0.0000 N   0  0  0  0  0  0  0  0  0  0  0  0
   -2.2829  -10.5772    0.0000 N   0  0  0  0  0  0  0  0  0  0  0  0
    2.4604   -7.7600    0.0000 C   0  0  0  0  0  0  0  0  0  0  0  0
    1.5787   -6.5465    0.0000 O   0  0  0  0  0  0  0  0  0  0  0  0
    0.7500   -1.2990    0.0000 C   0  0  0  0  0  0  0  0  0  0  0  0
    1.5000    0.0000    0.0000 C   0  0  0  0  0  0  0  0  0  0  0  0
    0.7500    1.2990    0.0000 C   0  0  0  0  0  0  0  0  0  0  0  0
   -0.7500    1.2990    0.0000 C   0  0  0  0  0  0  0  0  0  0  0  0
   -1.5000    0.0000    0.0000 C   0  0  0  0  0  0  0  0  0  0  0  0
   -0.7500   -1.2990    0.0000 C   0  0  0  0  0  0  0  0  0  0  0  0
  1  2  1  0
  2  3  1  0
  3  4  2  0
  4  5  1  0
  5  6  2  0
  5  7  1  0
  7  8  1  0
  8  9  2  0
  9 10  1  0
 10 11  2  0
 11 12  1  0
 12 13  1  0
 13 14  1  0
 14 15  1  0
 15 16  1  0
 16 17  1  0
 17 18  2  0
 17 19  1  0
 19 20  1  0
 20 21  2  0
 21 22  1  0
 22 23  2  0
 23 24  1  0
 24 25  2  0
 16 26  1  0
 26 27  2  0
  4 28  1  0
 28 29  2  0
 29 30  1  0
 30 31  2  0
 31 32  1  0
 32 33  2  0
 33  2  1  0
 12  8  1  0
 26 13  1  0
 33 28  1  0
 25 20  1  0
M  END
>  <Title>  (1322) 
idABWXgen14

$$$$

     RDKit          2D

 37 41  0  0  0  0  0  0  0  0999 V2000
   -3.1965   -1.7857    0.0000 C   0  0  0  0  0  0  0  0  0  0  0  0
   -1.8107   -2.3597    0.0000 C   0  0  0  0  0  0  0  0  0  0  0  0
   -1.8107   -3.8597    0.0000 C   0  0  0  0  0  0  0  0  0  0  0  0
   -0.7500   -4.9204    0.0000 C   0  0  0  0  0  0  0  0  0  0  0  0
    0.7500   -4.9204    0.0000 C   0  0  0  0  0  0  0  0  0  0  0  0
    1.8107   -3.8597    0.0000 C   0  0  0  0  0  0  0  0  0  0  0  0
    1.8107   -2.3597    0.0000 C   0  0  0  0  0  0  0  0  0  0  0  0
    3.1965   -1.7857    0.0000 C   0  0  0  0  0  0  0  0  0  0  0  0
    3.3923   -0.2985    0.0000 O   0  0  0  0  0  0  0  0  0  0  0  0
    4.3865   -2.6988    0.0000 N   0  0  0  0  0  0  0  0  0  0  0  0
    5.7723   -2.1248    0.0000 C   0  0  0  0  0  0  0  0  0  0  0  0
    6.1225   -0.6662    0.0000 N   0  0  0  0  0  0  0  0  0  0  0  0
    7.6179   -0.5485    0.0000 N   0  0  0  0  0  0  0  0  0  0  0  0
    8.1919   -1.9344    0.0000 N   0  0  0  0  0  0  0  0  0  0  0  0
    7.0513   -2.9085    0.0000 N   0  0  0  0  0  0  0  0  0  0  0  0
    7.1690   -4.4039    0.0000 C   0  0  0  0  0  0  0  0  0  0  0  0
    8.4479   -5.1877    0.0000 C   0  0  0  0  0  0  0  0  0  0  0  0
    8.0978   -6.6462    0.0000 C   0  0  0  0  0  0  0  0  0  0  0  0
    6.6024   -6.7639    0.0000 C   0  0  0  0  0  0  0  0  0  0  0  0
    5.8186   -8.0429    0.0000 O   0  0  0  0  0  0  0  0  0  0  0  0
    4.3192   -8.0036    0.0000 C   0  0  0  0  0  0  0  0  0  0  0  0
    3.6034   -6.6854    0.0000 O   0  0  0  0  0  0  0  0  0  0  0  0
    3.5354   -9.2826    0.0000 N   0  0  0  0  0  0  0  0  0  0  0  0
    2.0359   -9.2433    0.0000 C   0  0  0  0  0  0  0  0  0  0  0  0
    1.3202   -7.9251    0.0000 N   0  0  0  0  0  0  0  0  0  0  0  0
   -0.1793   -7.8858    0.0000 N   0  0  0  0  0  0  0  0  0  0  0  0
   -0.9630   -9.1648    0.0000 N   0  0  0  0  0  0  0  0  0  0  0  0
   -0.2473  -10.4830    0.0000 N   0  0  0  0  0  0  0  0  0  0  0  0
    1.2522  -10.5223    0.0000 N   0  0  0  0  0  0  0  0  0  0  0  0
    6.0284   -5.3781    0.0000 C   0  0  0  0  0  0  0  0  0  0  0  0
    4.5698   -5.0279    0.0000 O   0  0  0  0  0  0  0  0  0  0  0  0
    0.7500   -1.2990    0.0000 C   0  0  0  0  0  0  0  0  0  0  0  0
    1.5000    0.0000    0.0000 C   0  0  0  0  0  0  0  0  0  0  0  0
    0.7500    1.2990    0.0000 C   0  0  0  0  0  0  0  0  0  0  0  0
   -0.7500    1.2990    0.0000 C   0  0  0  0  0  0  0  0  0  0  0  0
   -1.5000    0.0000    0.0000 C   0  0  0  0  0  0  0  0  0  0  0  0
   -0.7500   -1.2990    0.0000 C   0  0  0  0  0  0  0  0  0  0  0  0
  1  2  1  0
  2  3  1  0
  3  4  2  0
  4  5  1  0
  5  6  1  0
  6  7  2  0
  7  8  1  0
  8  9  2  0
  8 10  1  0
 10 11  1  0
 11 12  2  0
 12 13  1  0
 13 14  2  0
 14 15  1  0
 15 16  1  0
 16 17  2  0
 17 18  1  0
 18 19  2  0
 19 20  1  0
 20 21  1  0
 21 22  2  0
 21 23  1  0
 23 24  1  0
 24 25  2  0
 25 26  1  0
 26 27  2  0
 27 28  1  0
 28 29  2  0
 19 30  1  0
 30 31  2  0
  7 32  1  0
 32 33  2  0
 33 34  1  0
 34 35  2  0
 35 36  1  0
 36 37  2  0
 37  2  1  0
 15 11  1  0
 30 16  1  0
 37 32  1  0
 29 24  1  0
M  END
>  <Title>  (1323) 
idABWYgen14

$$$$

     RDKit          2D

  5  4  0  0  0  0  0  0  0  0999 V2000
    0.0000    0.0000    0.0000 C   0  0  0  0  0  0  0  0  0  0  0  0
    1.2990    0.7500    0.0000 C   0  0  0  0  0  0  0  0  0  0  0  0
    2.5981   -0.0000    0.0000 C   0  0  0  0  0  0  0  0  0  0  0  0
    1.2990    2.2500    0.0000 C   0  0  0  0  0  0  0  0  0  0  0  0
    1.2990    3.7500    0.0000 N   0  0  0  0  0  0  0  0  0  0  0  0
  1  2  1  0
  2  3  1  0
  2  4  1  0
  4  5  3  0
M  END
>  <Title>  (1324) 
idABWZgen14

$$$$

     RDKit          2D

 37 41  0  0  0  0  0  0  0  0999 V2000
   10.5000    5.1962    0.0000 C   0  0  0  0  0  0  0  0  0  0  0  0
    9.7500    3.8971    0.0000 C   0  0  0  0  0  0  0  0  0  0  0  0
    8.2500    3.8971    0.0000 C   0  0  0  0  0  0  0  0  0  0  0  0
    7.5000    2.5981    0.0000 C   0  0  0  0  0  0  0  0  0  0  0  0
    8.2500    1.2990    0.0000 C   0  0  0  0  0  0  0  0  0  0  0  0
    7.5000    0.0000    0.0000 C   0  0  0  0  0  0  0  0  0  0  0  0
    6.0000    0.0000    0.0000 C   0  0  0  0  0  0  0  0  0  0  0  0
    5.2500   -1.2990    0.0000 O   0  0  0  0  0  0  0  0  0  0  0  0
    6.0000   -2.5981    0.0000 C   0  0  0  0  0  0  0  0  0  0  0  0
    7.5000   -2.5981    0.0000 O   0  0  0  0  0  0  0  0  0  0  0  0
    5.2500   -3.8971    0.0000 N   0  0  0  0  0  0  0  0  0  0  0  0
    6.0000   -5.1962    0.0000 C   0  0  0  0  0  0  0  0  0  0  0  0
    7.4918   -5.3529    0.0000 N   0  0  0  0  0  0  0  0  0  0  0  0
    7.8037   -6.8202    0.0000 N   0  0  0  0  0  0  0  0  0  0  0  0
    6.5046   -7.5702    0.0000 N   0  0  0  0  0  0  0  0  0  0  0  0
    5.3899   -6.5665    0.0000 N   0  0  0  0  0  0  0  0  0  0  0  0
    3.9227   -6.8783    0.0000 N   0  0  0  0  0  0  0  0  0  0  0  0
    2.8080   -5.8746    0.0000 C   0  0  0  0  0  0  0  0  0  0  0  0
    1.5089   -6.6246    0.0000 C   0  0  0  0  0  0  0  0  0  0  0  0
    1.8208   -8.0919    0.0000 N   0  0  0  0  0  0  0  0  0  0  0  0
    0.8171   -9.2066    0.0000 C   0  0  0  0  0  0  0  0  0  0  0  0
    1.2806  -10.6332    0.0000 O   0  0  0  0  0  0  0  0  0  0  0  0
   -0.6501   -8.8947    0.0000 N   0  0  0  0  0  0  0  0  0  0  0  0
   -1.1137   -7.4681    0.0000 C   0  0  0  0  0  0  0  0  0  0  0  0
   -2.5809   -7.1563    0.0000 N   0  0  0  0  0  0  0  0  0  0  0  0
   -3.0444   -5.7297    0.0000 N   0  0  0  0  0  0  0  0  0  0  0  0
   -2.0407   -4.6150    0.0000 N   0  0  0  0  0  0  0  0  0  0  0  0
   -0.5735   -4.9268    0.0000 N   0  0  0  0  0  0  0  0  0  0  0  0
   -0.1100   -6.3534    0.0000 N   0  0  0  0  0  0  0  0  0  0  0  0
    3.3126   -8.2487    0.0000 C   0  0  0  0  0  0  0  0  0  0  0  0
    4.0626   -9.5477    0.0000 O   0  0  0  0  0  0  0  0  0  0  0  0
    5.2500    1.2990    0.0000 C   0  0  0  0  0  0  0  0  0  0  0  0
    3.7500    1.2990    0.0000 C   0  0  0  0  0  0  0  0  0  0  0  0
    3.0000    2.5981    0.0000 C   0  0  0  0  0  0  0  0  0  0  0  0
    3.7500    3.8971    0.0000 C   0  0  0  0  0  0  0  0  0  0  0  0
    5.2500    3.8971    0.0000 C   0  0  0  0  0  0  0  0  0  0  0  0
    6.0000    2.5981    0.0000 C   0  0  0  0  0  0  0  0  0  0  0  0
  1  2  1  0
  2  3  1  0
  3  4  1  0
  4  5  2  0
  5  6  1  0
  6  7  2  0
  7  8  1  0
  8  9  1  0
  9 10  2  0
  9 11  1  0
 11 12  1  0
 12 13  2  0
 13 14  1  0
 14 15  2  0
 15 16  1  0
 16 17  1  0
 17 18  1  0
 18 19  1  0
 19 20  1  0
 20 21  1  0
 21 22  2  0
 21 23  1  0
 23 24  1  0
 24 25  2  0
 25 26  1  0
 26 27  2  0
 27 28  1  0
 28 29  2  0
 20 30  1  0
 30 31  2  0
  7 32  1  0
 32 33  2  0
 33 34  1  0
 34 35  2  0
 35 36  1  0
 36 37  2  0
 37  4  1  0
 16 12  1  0
 30 17  1  0
 37 32  1  0
 29 24  1  0
M  END
>  <Title>  (1325) 
idABXAgen14

$$$$

     RDKit          2D

  9  8  0  0  0  0  0  0  0  0999 V2000
    0.0000    0.0000    0.0000 C   0  0  0  0  0  0  0  0  0  0  0  0
    1.2990    0.7500    0.0000 C   0  0  0  0  0  0  0  0  0  0  0  0
    2.5981   -0.0000    0.0000 C   0  0  0  0  0  0  0  0  0  0  0  0
    3.8971    0.7500    0.0000 C   0  0  0  0  0  0  0  0  0  0  0  0
    3.8971    2.2500    0.0000 O   0  0  0  0  0  0  0  0  0  0  0  0
    5.1962   -0.0000    0.0000 C   0  0  0  0  0  0  0  0  0  0  0  0
    6.4952    0.7500    0.0000 C   0  0  0  0  0  0  0  0  0  0  0  0
    7.7942   -0.0000    0.0000 C   0  0  0  0  0  0  0  0  0  0  0  0
    9.0933   -0.7500    0.0000 N   0  0  0  0  0  0  0  0  0  0  0  0
  1  2  1  0
  2  3  1  0
  3  4  1  0
  4  5  2  0
  4  6  1  0
  6  7  1  0
  7  8  1  0
  8  9  3  0
M  END
>  <Title>  (1326) 
idABXBgen14

$$$$

     RDKit          2D

 14 14  0  0  0  0  0  0  0  0999 V2000
   10.5000   -2.5981    0.0000 C   0  0  0  0  0  0  0  0  0  0  0  0
    9.0000   -2.5981    0.0000 C   0  0  0  0  0  0  0  0  0  0  0  0
    7.5000   -2.5981    0.0000 C   0  0  0  0  0  0  0  0  0  0  0  0
    6.0000   -2.5981    0.0000 C   0  0  0  0  0  0  0  0  0  0  0  0
    5.2500   -1.2990    0.0000 C   0  0  0  0  0  0  0  0  0  0  0  0
    6.0000    0.0000    0.0000 O   0  0  0  0  0  0  0  0  0  0  0  0
    3.7500   -1.2990    0.0000 N   0  0  0  0  0  0  0  0  0  0  0  0
    3.0000    0.0000    0.0000 C   0  0  0  0  0  0  0  0  0  0  0  0
    1.5000    0.0000    0.0000 C   0  0  0  0  0  0  0  0  0  0  0  0
    0.7500   -1.2990    0.0000 C   0  0  0  0  0  0  0  0  0  0  0  0
   -0.7500   -1.2990    0.0000 C   0  0  0  0  0  0  0  0  0  0  0  0
   -1.5000    0.0000    0.0000 C   0  0  0  0  0  0  0  0  0  0  0  0
   -0.7500    1.2990    0.0000 N   0  0  0  0  0  0  0  0  0  0  0  0
    0.7500    1.2990    0.0000 C   0  0  0  0  0  0  0  0  0  0  0  0
  1  2  1  0
  2  3  3  0
  3  4  1  0
  4  5  1  0
  5  6  2  0
  5  7  1  0
  7  8  1  0
  8  9  1  0
  9 10  2  0
 10 11  1  0
 11 12  2  0
 12 13  1  0
 13 14  2  0
 14  9  1  0
M  END
>  <Title>  (1327) 
idABXCgen14

$$$$

     RDKit          2D

 12 12  0  0  0  0  0  0  0  0999 V2000
    7.5000   -2.5981    0.0000 C   0  0  0  0  0  0  0  0  0  0  0  0
    6.0000   -2.5981    0.0000 N   0  0  0  0  0  0  0  0  0  0  0  0
    5.2500   -1.2990    0.0000 C   0  0  0  0  0  0  0  0  0  0  0  0
    6.0000    0.0000    0.0000 O   0  0  0  0  0  0  0  0  0  0  0  0
    3.7500   -1.2990    0.0000 C   0  0  0  0  0  0  0  0  0  0  0  0
    3.0000    0.0000    0.0000 C   0  0  0  0  0  0  0  0  0  0  0  0
    1.5000    0.0000    0.0000 C   0  0  0  0  0  0  0  0  0  0  0  0
    0.7500   -1.2990    0.0000 C   0  0  0  0  0  0  0  0  0  0  0  0
   -0.7500   -1.2990    0.0000 C   0  0  0  0  0  0  0  0  0  0  0  0
   -1.5000    0.0000    0.0000 C   0  0  0  0  0  0  0  0  0  0  0  0
   -0.7500    1.2990    0.0000 N   0  0  0  0  0  0  0  0  0  0  0  0
    0.7500    1.2990    0.0000 C   0  0  0  0  0  0  0  0  0  0  0  0
  1  2  1  0
  2  3  1  0
  3  4  2  0
  3  5  1  0
  5  6  1  0
  6  7  1  0
  7  8  2  0
  8  9  1  0
  9 10  2  0
 10 11  1  0
 11 12  2  0
 12  7  1  0
M  END
>  <Title>  (1328) 
idABXDgen14

$$$$

     RDKit          2D

 38 42  0  0  0  0  0  0  0  0999 V2000
   -7.5000   -5.1962    0.0000 C   0  0  0  0  0  0  0  0  0  0  0  0
   -6.0000   -5.1962    0.0000 C   0  0  0  0  0  0  0  0  0  0  0  0
   -5.2500   -3.8971    0.0000 C   0  0  0  0  0  0  0  0  0  0  0  0
   -3.7500   -3.8971    0.0000 N   0  0  0  0  0  0  0  0  0  0  0  0
   -3.0000   -2.5981    0.0000 C   0  0  0  0  0  0  0  0  0  0  0  0
   -1.5000   -2.5981    0.0000 C   0  0  0  0  0  0  0  0  0  0  0  0
   -0.7500   -3.8971    0.0000 C   0  0  0  0  0  0  0  0  0  0  0  0
    0.7500   -3.8971    0.0000 C   0  0  0  0  0  0  0  0  0  0  0  0
    1.5000   -2.5981    0.0000 C   0  0  0  0  0  0  0  0  0  0  0  0
    3.0000   -2.5981    0.0000 C   0  0  0  0  0  0  0  0  0  0  0  0
    3.7500   -1.2990    0.0000 O   0  0  0  0  0  0  0  0  0  0  0  0
    3.7500   -3.8971    0.0000 N   0  0  0  0  0  0  0  0  0  0  0  0
    5.2500   -3.8971    0.0000 C   0  0  0  0  0  0  0  0  0  0  0  0
    6.1317   -2.6836    0.0000 N   0  0  0  0  0  0  0  0  0  0  0  0
    7.5583   -3.1471    0.0000 N   0  0  0  0  0  0  0  0  0  0  0  0
    7.5583   -4.6471    0.0000 N   0  0  0  0  0  0  0  0  0  0  0  0
    6.1317   -5.1106    0.0000 N   0  0  0  0  0  0  0  0  0  0  0  0
    5.6682   -6.5372    0.0000 N   0  0  0  0  0  0  0  0  0  0  0  0
    6.5498   -7.7508    0.0000 C   0  0  0  0  0  0  0  0  0  0  0  0
    5.6682   -8.9643    0.0000 C   0  0  0  0  0  0  0  0  0  0  0  0
    4.2416   -8.5008    0.0000 N   0  0  0  0  0  0  0  0  0  0  0  0
    3.0280   -9.3824    0.0000 C   0  0  0  0  0  0  0  0  0  0  0  0
    3.1848  -10.8742    0.0000 O   0  0  0  0  0  0  0  0  0  0  0  0
    1.6577   -8.7723    0.0000 N   0  0  0  0  0  0  0  0  0  0  0  0
    0.4442   -9.6540    0.0000 C   0  0  0  0  0  0  0  0  0  0  0  0
   -0.9261   -9.0439    0.0000 N   0  0  0  0  0  0  0  0  0  0  0  0
   -2.1396   -9.9256    0.0000 N   0  0  0  0  0  0  0  0  0  0  0  0
   -1.9829  -11.4174    0.0000 N   0  0  0  0  0  0  0  0  0  0  0  0
   -0.6125  -12.0275    0.0000 N   0  0  0  0  0  0  0  0  0  0  0  0
    0.6010  -11.1458    0.0000 N   0  0  0  0  0  0  0  0  0  0  0  0
    4.2416   -7.0008    0.0000 C   0  0  0  0  0  0  0  0  0  0  0  0
    3.0280   -6.1191    0.0000 O   0  0  0  0  0  0  0  0  0  0  0  0
    0.7500   -1.2990    0.0000 C   0  0  0  0  0  0  0  0  0  0  0  0
    1.5000    0.0000    0.0000 C   0  0  0  0  0  0  0  0  0  0  0  0
    0.7500    1.2990    0.0000 C   0  0  0  0  0  0  0  0  0  0  0  0
   -0.7500    1.2990    0.0000 C   0  0  0  0  0  0  0  0  0  0  0  0
   -1.5000    0.0000    0.0000 C   0  0  0  0  0  0  0  0  0  0  0  0
   -0.7500   -1.2990    0.0000 C   0  0  0  0  0  0  0  0  0  0  0  0
  1  2  1  0
  2  3  2  3
  3  4  1  0
  4  5  1  0
  5  6  1  0
  6  7  2  0
  7  8  1  0
  8  9  2  0
  9 10  1  0
 10 11  2  0
 10 12  1  0
 12 13  1  0
 13 14  2  0
 14 15  1  0
 15 16  2  0
 16 17  1  0
 17 18  1  0
 18 19  1  0
 19 20  1  0
 20 21  1  0
 21 22  1  0
 22 23  2  0
 22 24  1  0
 24 25  1  0
 25 26  2  0
 26 27  1  0
 27 28  2  0
 28 29  1  0
 29 30  2  0
 21 31  1  0
 31 32  2  0
  9 33  1  0
 33 34  2  0
 34 35  1  0
 35 36  2  0
 36 37  1  0
 37 38  2  0
 38  6  1  0
 17 13  1  0
 31 18  1  0
 38 33  1  0
 30 25  1  0
M  END
>  <Title>  (1329) 
idABXEgen14

$$$$

     RDKit          2D

 36 40  0  0  0  0  0  0  0  0999 V2000
   -3.1965   -1.7857    0.0000 C   0  0  0  0  0  0  0  0  0  0  0  0
   -1.8107   -2.3597    0.0000 C   0  0  0  0  0  0  0  0  0  0  0  0
   -1.8107   -3.8597    0.0000 C   0  0  0  0  0  0  0  0  0  0  0  0
   -0.7500   -4.9204    0.0000 C   0  0  0  0  0  0  0  0  0  0  0  0
    0.7500   -4.9204    0.0000 C   0  0  0  0  0  0  0  0  0  0  0  0
    1.8107   -3.8597    0.0000 C   0  0  0  0  0  0  0  0  0  0  0  0
    1.8107   -2.3597    0.0000 C   0  0  0  0  0  0  0  0  0  0  0  0
    3.1965   -1.7857    0.0000 C   0  0  0  0  0  0  0  0  0  0  0  0
    3.3923   -0.2985    0.0000 O   0  0  0  0  0  0  0  0  0  0  0  0
    4.3865   -2.6988    0.0000 N   0  0  0  0  0  0  0  0  0  0  0  0
    5.7723   -2.1248    0.0000 C   0  0  0  0  0  0  0  0  0  0  0  0
    6.1225   -0.6662    0.0000 N   0  0  0  0  0  0  0  0  0  0  0  0
    7.6179   -0.5485    0.0000 N   0  0  0  0  0  0  0  0  0  0  0  0
    8.1919   -1.9344    0.0000 N   0  0  0  0  0  0  0  0  0  0  0  0
    7.0513   -2.9085    0.0000 N   0  0  0  0  0  0  0  0  0  0  0  0
    7.1690   -4.4039    0.0000 C   0  0  0  0  0  0  0  0  0  0  0  0
    8.4479   -5.1877    0.0000 C   0  0  0  0  0  0  0  0  0  0  0  0
    8.0978   -6.6462    0.0000 C   0  0  0  0  0  0  0  0  0  0  0  0
    6.6024   -6.7639    0.0000 C   0  0  0  0  0  0  0  0  0  0  0  0
    5.8186   -8.0429    0.0000 C   0  0  0  0  0  0  0  0  0  0  0  0
    6.5344   -9.3611    0.0000 O   0  0  0  0  0  0  0  0  0  0  0  0
    4.3192   -8.0036    0.0000 N   0  0  0  0  0  0  0  0  0  0  0  0
    3.5354   -9.2826    0.0000 C   0  0  0  0  0  0  0  0  0  0  0  0
    2.0359   -9.2433    0.0000 N   0  0  0  0  0  0  0  0  0  0  0  0
    1.2522  -10.5223    0.0000 N   0  0  0  0  0  0  0  0  0  0  0  0
    1.9679  -11.8405    0.0000 N   0  0  0  0  0  0  0  0  0  0  0  0
    3.4674  -11.8797    0.0000 N   0  0  0  0  0  0  0  0  0  0  0  0
    4.2512  -10.6008    0.0000 N   0  0  0  0  0  0  0  0  0  0  0  0
    6.0284   -5.3781    0.0000 C   0  0  0  0  0  0  0  0  0  0  0  0
    4.5698   -5.0279    0.0000 O   0  0  0  0  0  0  0  0  0  0  0  0
    0.7500   -1.2990    0.0000 C   0  0  0  0  0  0  0  0  0  0  0  0
    1.5000    0.0000    0.0000 C   0  0  0  0  0  0  0  0  0  0  0  0
    0.7500    1.2990    0.0000 C   0  0  0  0  0  0  0  0  0  0  0  0
   -0.7500    1.2990    0.0000 C   0  0  0  0  0  0  0  0  0  0  0  0
   -1.5000    0.0000    0.0000 C   0  0  0  0  0  0  0  0  0  0  0  0
   -0.7500   -1.2990    0.0000 C   0  0  0  0  0  0  0  0  0  0  0  0
  1  2  1  0
  2  3  1  0
  3  4  1  0
  4  5  1  0
  5  6  1  0
  6  7  1  0
  7  8  1  0
  8  9  2  0
  8 10  1  0
 10 11  1  0
 11 12  2  0
 12 13  1  0
 13 14  2  0
 14 15  1  0
 15 16  1  0
 16 17  2  0
 17 18  1  0
 18 19  2  0
 19 20  1  0
 20 21  2  0
 20 22  1  0
 22 23  1  0
 23 24  2  0
 24 25  1  0
 25 26  2  0
 26 27  1  0
 27 28  2  0
 19 29  1  0
 29 30  2  0
  7 31  1  0
 31 32  2  0
 32 33  1  0
 33 34  2  0
 34 35  1  0
 35 36  2  0
 36  2  1  0
 15 11  1  0
 29 16  1  0
 36 31  1  0
 28 23  1  0
M  END
>  <Title>  (1330) 
idABXFgen14

$$$$

     RDKit          2D

 18 17  0  0  0  0  0  0  0  0999 V2000
    0.0000    0.0000    0.0000 C   0  0  0  0  0  0  0  0  0  0  0  0
   -0.0000   -1.5000    0.0000 C   0  0  0  0  0  0  0  0  0  0  0  0
   -0.0000   -3.0000    0.0000 C   0  0  0  0  0  0  0  0  0  0  0  0
    1.2990   -3.7500    0.0000 C   0  0  0  0  0  0  0  0  0  0  0  0
    1.2990   -5.2500    0.0000 C   0  0  0  0  0  0  0  0  0  0  0  0
    2.5981   -6.0000    0.0000 C   0  0  0  0  0  0  0  0  0  0  0  0
    2.5981   -7.5000    0.0000 C   0  0  0  0  0  0  0  0  0  0  0  0
    2.5981   -9.0000    0.0000 C   0  0  0  0  0  0  0  0  0  0  0  0
    2.5981  -10.5000    0.0000 C   0  0  0  0  0  0  0  0  0  0  0  0
    2.5981  -12.0000    0.0000 C   0  0  0  0  0  0  0  0  0  0  0  0
    2.5981  -13.5000    0.0000 C   0  0  0  0  0  0  0  0  0  0  0  0
    2.5981  -15.0000    0.0000 C   0  0  0  0  0  0  0  0  0  0  0  0
    2.5981  -16.5000    0.0000 C   0  0  0  0  0  0  0  0  0  0  0  0
    2.5981  -18.0000    0.0000 C   0  0  0  0  0  0  0  0  0  0  0  0
    2.5981  -19.5000    0.0000 C   0  0  0  0  0  0  0  0  0  0  0  0
    2.5981  -21.0000    0.0000 C   0  0  0  0  0  0  0  0  0  0  0  0
    2.5981  -22.5000    0.0000 C   0  0  0  0  0  0  0  0  0  0  0  0
    2.5981  -24.0000    0.0000 N   0  0  0  0  0  0  0  0  0  0  0  0
  1  2  3  0
  2  3  1  0
  3  4  1  0
  4  5  1  0
  5  6  2  3
  6  7  1  0
  7  8  3  0
  8  9  1  0
  9 10  3  0
 10 11  1  0
 11 12  3  0
 12 13  1  0
 13 14  3  0
 14 15  1  0
 15 16  3  0
 16 17  1  0
 17 18  3  0
M  END
>  <Title>  (1331) 
idABXGgen14

$$$$

     RDKit          2D

 35 39  0  0  0  0  0  0  0  0999 V2000
   -3.1965   -1.7857    0.0000 C   0  0  0  0  0  0  0  0  0  0  0  0
   -1.8107   -2.3597    0.0000 C   0  0  0  0  0  0  0  0  0  0  0  0
   -1.8107   -3.8597    0.0000 C   0  0  0  0  0  0  0  0  0  0  0  0
   -0.7500   -4.9204    0.0000 C   0  0  0  0  0  0  0  0  0  0  0  0
    0.7500   -4.9204    0.0000 C   0  0  0  0  0  0  0  0  0  0  0  0
    1.8107   -3.8597    0.0000 C   0  0  0  0  0  0  0  0  0  0  0  0
    1.8107   -2.3597    0.0000 C   0  0  0  0  0  0  0  0  0  0  0  0
    3.1965   -1.7857    0.0000 C   0  0  0  0  0  0  0  0  0  0  0  0
    3.3923   -0.2985    0.0000 O   0  0  0  0  0  0  0  0  0  0  0  0
    4.3865   -2.6988    0.0000 N   0  0  0  0  0  0  0  0  0  0  0  0
    5.7723   -2.1248    0.0000 C   0  0  0  0  0  0  0  0  0  0  0  0
    6.1225   -0.6662    0.0000 N   0  0  0  0  0  0  0  0  0  0  0  0
    7.6179   -0.5485    0.0000 N   0  0  0  0  0  0  0  0  0  0  0  0
    8.1919   -1.9344    0.0000 N   0  0  0  0  0  0  0  0  0  0  0  0
    7.0513   -2.9085    0.0000 N   0  0  0  0  0  0  0  0  0  0  0  0
    7.1690   -4.4039    0.0000 N   0  0  0  0  0  0  0  0  0  0  0  0
    6.1948   -5.5445    0.0000 C   0  0  0  0  0  0  0  0  0  0  0  0
    7.3354   -6.5187    0.0000 C   0  0  0  0  0  0  0  0  0  0  0  0
    7.4531   -8.0141    0.0000 C   0  0  0  0  0  0  0  0  0  0  0  0
    8.8070   -8.6598    0.0000 O   0  0  0  0  0  0  0  0  0  0  0  0
    6.2169   -8.8637    0.0000 N   0  0  0  0  0  0  0  0  0  0  0  0
    6.3346  -10.3591    0.0000 C   0  0  0  0  0  0  0  0  0  0  0  0
    5.0984  -11.2087    0.0000 N   0  0  0  0  0  0  0  0  0  0  0  0
    5.2161  -12.7040    0.0000 N   0  0  0  0  0  0  0  0  0  0  0  0
    6.5700  -13.3498    0.0000 N   0  0  0  0  0  0  0  0  0  0  0  0
    7.8062  -12.5002    0.0000 N   0  0  0  0  0  0  0  0  0  0  0  0
    7.6885  -11.0048    0.0000 N   0  0  0  0  0  0  0  0  0  0  0  0
    8.3096   -5.3781    0.0000 C   0  0  0  0  0  0  0  0  0  0  0  0
    9.8050   -5.2604    0.0000 O   0  0  0  0  0  0  0  0  0  0  0  0
    0.7500   -1.2990    0.0000 C   0  0  0  0  0  0  0  0  0  0  0  0
    1.5000    0.0000    0.0000 C   0  0  0  0  0  0  0  0  0  0  0  0
    0.7500    1.2990    0.0000 C   0  0  0  0  0  0  0  0  0  0  0  0
   -0.7500    1.2990    0.0000 C   0  0  0  0  0  0  0  0  0  0  0  0
   -1.5000    0.0000    0.0000 C   0  0  0  0  0  0  0  0  0  0  0  0
   -0.7500   -1.2990    0.0000 C   0  0  0  0  0  0  0  0  0  0  0  0
  1  2  1  0
  2  3  1  0
  3  4  1  0
  4  5  1  0
  5  6  1  0
  6  7  1  0
  7  8  1  0
  8  9  2  0
  8 10  1  0
 10 11  1  0
 11 12  2  0
 12 13  1  0
 13 14  2  0
 14 15  1  0
 15 16  1  0
 16 17  1  0
 17 18  2  0
 18 19  1  0
 19 20  2  0
 19 21  1  0
 21 22  1  0
 22 23  2  0
 23 24  1  0
 24 25  2  0
 25 26  1  0
 26 27  2  0
 18 28  1  0
 28 29  2  0
  7 30  1  0
 30 31  2  0
 31 32  1  0
 32 33  2  0
 33 34  1  0
 34 35  2  0
 35  2  1  0
 15 11  1  0
 28 16  1  0
 35 30  1  0
 27 22  1  0
M  END
>  <Title>  (1332) 
idABXHgen14

$$$$

     RDKit          2D

 15 15  0  0  0  0  0  0  0  0999 V2000
    5.0260   -6.4952    0.0000 C   0  0  0  0  0  0  0  0  0  0  0  0
    5.7760   -5.1962    0.0000 C   0  0  0  0  0  0  0  0  0  0  0  0
    7.2760   -5.1962    0.0000 C   0  0  0  0  0  0  0  0  0  0  0  0
    5.0260   -3.8971    0.0000 C   0  0  0  0  0  0  0  0  0  0  0  0
    5.7760   -2.5981    0.0000 C   0  0  0  0  0  0  0  0  0  0  0  0
    7.2760   -2.5981    0.0000 C   0  0  0  0  0  0  0  0  0  0  0  0
    5.0260   -1.2990    0.0000 N   0  0  0  0  0  0  0  0  0  0  0  0
    3.5260   -1.2990    0.0000 C   0  0  0  0  0  0  0  0  0  0  0  0
    2.7760   -2.5981    0.0000 O   0  0  0  0  0  0  0  0  0  0  0  0
    2.7760    0.0000    0.0000 C   0  0  0  0  0  0  0  0  0  0  0  0
    1.2760    0.0000    0.0000 C   0  0  0  0  0  0  0  0  0  0  0  0
    0.3943    1.2135    0.0000 C   0  0  0  0  0  0  0  0  0  0  0  0
   -1.0323    0.7500    0.0000 C   0  0  0  0  0  0  0  0  0  0  0  0
   -1.0323   -0.7500    0.0000 N   0  0  0  0  0  0  0  0  0  0  0  0
    0.3943   -1.2135    0.0000 N   0  0  0  0  0  0  0  0  0  0  0  0
  1  2  1  0
  2  3  1  0
  2  4  1  0
  4  5  1  0
  5  6  1  0
  5  7  1  0
  7  8  1  0
  8  9  2  0
  8 10  1  0
 10 11  1  0
 11 12  2  0
 12 13  2  0
 13 14  1  0
 14 15  2  0
 15 11  1  0
M  END
>  <Title>  (1333) 
idABXIgen14

$$$$

     RDKit          2D

  7  7  0  0  0  0  0  0  0  0999 V2000
    3.0000    0.0000    0.0000 C   0  0  0  0  0  0  0  0  0  0  0  0
    1.5000    0.0000    0.0000 C   0  0  0  0  0  0  0  0  0  0  0  0
    0.7500   -1.2990    0.0000 C   0  0  0  0  0  0  0  0  0  0  0  0
   -0.7500   -1.2990    0.0000 N   0  0  0  0  0  0  0  0  0  0  0  0
   -1.5000    0.0000    0.0000 C   0  0  0  0  0  0  0  0  0  0  0  0
   -0.7500    1.2990    0.0000 C   0  0  0  0  0  0  0  0  0  0  0  0
    0.7500    1.2990    0.0000 C   0  0  0  0  0  0  0  0  0  0  0  0
  1  2  1  0
  2  3  1  0
  3  4  2  0
  4  5  1  0
  5  6  2  0
  6  7  1  0
  7  2  1  0
M  END
>  <Title>  (1334) 
idABXJgen14

$$$$

     RDKit          2D

 10  9  0  0  0  0  0  0  0  0999 V2000
    0.0000    0.0000    0.0000 C   0  0  0  0  0  0  0  0  0  0  0  0
    1.2990    0.7500    0.0000 C   0  0  0  0  0  0  0  0  0  0  0  0
    2.5981   -0.0000    0.0000 C   0  0  0  0  0  0  0  0  0  0  0  0
    3.8971    0.7500    0.0000 C   0  0  0  0  0  0  0  0  0  0  0  0
    3.8971    2.2500    0.0000 O   0  0  0  0  0  0  0  0  0  0  0  0
    5.1962   -0.0000    0.0000 N   0  0  0  0  0  0  0  0  0  0  0  0
    6.4952    0.7500    0.0000 C   0  0  0  0  0  0  0  0  0  0  0  0
    7.7942   -0.0000    0.0000 C   0  0  0  0  0  0  0  0  0  0  0  0
    6.4952    2.2500    0.0000 C   0  0  0  0  0  0  0  0  0  0  0  0
    7.7942    3.0000    0.0000 C   0  0  0  0  0  0  0  0  0  0  0  0
  1  2  1  0
  2  3  1  0
  3  4  1  0
  4  5  2  0
  4  6  1  0
  6  7  1  0
  7  8  1  0
  7  9  1  0
  9 10  1  0
M  END
>  <Title>  (1335) 
idABXKgen14

$$$$

     RDKit          2D

 24 23  0  0  0  0  0  0  0  0999 V2000
    0.0000    0.0000    0.0000 C   0  0  0  0  0  0  0  0  0  0  0  0
   -0.0000   -1.5000    0.0000 C   0  0  0  0  0  0  0  0  0  0  0  0
   -0.0000   -3.0000    0.0000 C   0  0  0  0  0  0  0  0  0  0  0  0
   -0.0000   -4.5000    0.0000 C   0  0  0  0  0  0  0  0  0  0  0  0
   -0.0000   -6.0000    0.0000 C   0  0  0  0  0  0  0  0  0  0  0  0
   -0.0000   -7.5000    0.0000 C   0  0  0  0  0  0  0  0  0  0  0  0
   -0.0000   -9.0000    0.0000 C   0  0  0  0  0  0  0  0  0  0  0  0
   -0.0000  -10.5000    0.0000 C   0  0  0  0  0  0  0  0  0  0  0  0
   -0.0000  -12.0000    0.0000 C   0  0  0  0  0  0  0  0  0  0  0  0
   -0.0000  -13.5000    0.0000 C   0  0  0  0  0  0  0  0  0  0  0  0
   -0.0000  -15.0000    0.0000 C   0  0  0  0  0  0  0  0  0  0  0  0
   -0.0000  -16.5000    0.0000 C   0  0  0  0  0  0  0  0  0  0  0  0
   -0.0000  -18.0000    0.0000 C   0  0  0  0  0  0  0  0  0  0  0  0
   -0.0000  -19.5000    0.0000 C   0  0  0  0  0  0  0  0  0  0  0  0
   -0.0000  -21.0000    0.0000 C   0  0  0  0  0  0  0  0  0  0  0  0
   -0.0000  -22.5000    0.0000 C   0  0  0  0  0  0  0  0  0  0  0  0
   -0.0000  -24.0000    0.0000 C   0  0  0  0  0  0  0  0  0  0  0  0
   -0.0000  -25.5000    0.0000 C   0  0  0  0  0  0  0  0  0  0  0  0
   -0.0000  -27.0000    0.0000 C   0  0  0  0  0  0  0  0  0  0  0  0
   -0.0000  -28.5000    0.0000 C   0  0  0  0  0  0  0  0  0  0  0  0
   -0.0000  -30.0000    0.0000 C   0  0  0  0  0  0  0  0  0  0  0  0
   -0.0000  -31.5000    0.0000 C   0  0  0  0  0  0  0  0  0  0  0  0
   -0.0000  -33.0000    0.0000 C   0  0  0  0  0  0  0  0  0  0  0  0
   -0.0000  -34.5000    0.0000 N   0  0  0  0  0  0  0  0  0  0  0  0
  1  2  3  0
  2  3  1  0
  3  4  3  0
  4  5  1  0
  5  6  3  0
  6  7  1  0
  7  8  3  0
  8  9  1  0
  9 10  3  0
 10 11  1  0
 11 12  3  0
 12 13  1  0
 13 14  3  0
 14 15  1  0
 15 16  3  0
 16 17  1  0
 17 18  3  0
 18 19  1  0
 19 20  3  0
 20 21  1  0
 21 22  3  0
 22 23  1  0
 23 24  3  0
M  END
>  <Title>  (1336) 
idABXLgen14

$$$$

     RDKit          2D

  8  8  0  0  0  0  0  0  0  0999 V2000
    3.7500   -1.2990    0.0000 C   0  0  0  0  0  0  0  0  0  0  0  0
    3.0000    0.0000    0.0000 C   0  0  0  0  0  0  0  0  0  0  0  0
    1.5000    0.0000    0.0000 C   0  0  0  0  0  0  0  0  0  0  0  0
    0.7500   -1.2990    0.0000 C   0  0  0  0  0  0  0  0  0  0  0  0
   -0.7500   -1.2990    0.0000 C   0  0  0  0  0  0  0  0  0  0  0  0
   -1.5000    0.0000    0.0000 C   0  0  0  0  0  0  0  0  0  0  0  0
   -0.7500    1.2990    0.0000 C   0  0  0  0  0  0  0  0  0  0  0  0
    0.7500    1.2990    0.0000 C   0  0  0  0  0  0  0  0  0  0  0  0
  1  2  1  0
  2  3  1  0
  3  4  1  0
  4  5  2  0
  5  6  1  0
  6  7  2  0
  7  8  1  0
  8  3  1  0
M  END
>  <Title>  (1337) 
idABXMgen14

$$$$

     RDKit          2D

  9  8  0  0  0  0  0  0  0  0999 V2000
    0.0000    0.0000    0.0000 C   0  0  0  0  0  0  0  0  0  0  0  0
   -0.0000   -1.5000    0.0000 C   0  0  0  0  0  0  0  0  0  0  0  0
   -0.0000   -3.0000    0.0000 C   0  0  0  0  0  0  0  0  0  0  0  0
   -0.0000   -4.5000    0.0000 C   0  0  0  0  0  0  0  0  0  0  0  0
   -0.0000   -6.0000    0.0000 C   0  0  0  0  0  0  0  0  0  0  0  0
   -0.0000   -7.5000    0.0000 C   0  0  0  0  0  0  0  0  0  0  0  0
   -0.0000   -9.0000    0.0000 C   0  0  0  0  0  0  0  0  0  0  0  0
    1.2990   -9.7500    0.0000 C   0  0  0  0  0  0  0  0  0  0  0  0
    1.2990  -11.2500    0.0000 C   0  0  0  0  0  0  0  0  0  0  0  0
  1  2  3  0
  2  3  1  0
  3  4  3  0
  4  5  1  0
  5  6  3  0
  6  7  1  0
  7  8  2  3
  8  9  1  0
M  END
>  <Title>  (1338) 
idABXNgen14

$$$$

     RDKit          2D

  7  6  0  0  0  0  0  0  0  0999 V2000
    0.0000    0.0000    0.0000 C   0  0  0  0  0  0  0  0  0  0  0  0
    1.2990    0.7500    0.0000 C   0  0  0  0  0  0  0  0  0  0  0  0
    2.5981   -0.0000    0.0000 N   0  0  0  0  0  0  0  0  0  0  0  0
    3.8971    0.7500    0.0000 C   0  0  0  0  0  0  0  0  0  0  0  0
    5.1962   -0.0000    0.0000 C   0  0  0  0  0  0  0  0  0  0  0  0
    6.4952    0.7500    0.0000 C   0  0  0  0  0  0  0  0  0  0  0  0
    7.7942    1.5000    0.0000 N   0  0  0  0  0  0  0  0  0  0  0  0
  1  2  1  0
  2  3  1  0
  3  4  1  0
  4  5  1  0
  5  6  1  0
  6  7  3  0
M  END
>  <Title>  (1339) 
idABXOgen14

$$$$

     RDKit          2D

 46 52  0  0  0  0  0  0  0  0999 V2000
    1.2135   -7.3421    0.0000 C   0  0  0  0  0  0  0  0  0  0  0  0
    0.7500   -5.9156    0.0000 C   0  0  0  0  0  0  0  0  0  0  0  0
    1.9635   -5.0339    0.0000 C   0  0  0  0  0  0  0  0  0  0  0  0
    2.4271   -3.6073    0.0000 C   0  0  0  0  0  0  0  0  0  0  0  0
    1.9635   -2.1807    0.0000 C   0  0  0  0  0  0  0  0  0  0  0  0
    3.1771   -1.2990    0.0000 C   0  0  0  0  0  0  0  0  0  0  0  0
    3.0203    0.1927    0.0000 O   0  0  0  0  0  0  0  0  0  0  0  0
    4.5474   -1.9091    0.0000 N   0  0  0  0  0  0  0  0  0  0  0  0
    5.7609   -1.0275    0.0000 C   0  0  0  0  0  0  0  0  0  0  0  0
    5.7609    0.4725    0.0000 N   0  0  0  0  0  0  0  0  0  0  0  0
    7.1875    0.9361    0.0000 N   0  0  0  0  0  0  0  0  0  0  0  0
    8.0692   -0.2775    0.0000 N   0  0  0  0  0  0  0  0  0  0  0  0
    7.1875   -1.4910    0.0000 N   0  0  0  0  0  0  0  0  0  0  0  0
    7.6510   -2.9176    0.0000 N   0  0  0  0  0  0  0  0  0  0  0  0
    9.0776   -3.3811    0.0000 C   0  0  0  0  0  0  0  0  0  0  0  0
    9.0776   -4.8811    0.0000 C   0  0  0  0  0  0  0  0  0  0  0  0
    7.6510   -5.3446    0.0000 N   0  0  0  0  0  0  0  0  0  0  0  0
    7.1875   -6.7712    0.0000 C   0  0  0  0  0  0  0  0  0  0  0  0
    8.1912   -7.8859    0.0000 O   0  0  0  0  0  0  0  0  0  0  0  0
    5.7203   -7.0831    0.0000 N   0  0  0  0  0  0  0  0  0  0  0  0
    5.2567   -8.5097    0.0000 C   0  0  0  0  0  0  0  0  0  0  0  0
    3.7895   -8.8215    0.0000 N   0  0  0  0  0  0  0  0  0  0  0  0
    3.3260  -10.2481    0.0000 N   0  0  0  0  0  0  0  0  0  0  0  0
    4.3297  -11.3628    0.0000 N   0  0  0  0  0  0  0  0  0  0  0  0
    5.7969  -11.0510    0.0000 N   0  0  0  0  0  0  0  0  0  0  0  0
    6.2604   -9.6244    0.0000 N   0  0  0  0  0  0  0  0  0  0  0  0
    6.7693   -4.1311    0.0000 C   0  0  0  0  0  0  0  0  0  0  0  0
    5.2693   -4.1311    0.0000 O   0  0  0  0  0  0  0  0  0  0  0  0
    0.7500   -1.2990    0.0000 C   0  0  0  0  0  0  0  0  0  0  0  0
    1.5000    0.0000    0.0000 C   0  0  0  0  0  0  0  0  0  0  0  0
    0.7500    1.2990    0.0000 C   0  0  0  0  0  0  0  0  0  0  0  0
   -0.7500    1.2990    0.0000 C   0  0  0  0  0  0  0  0  0  0  0  0
   -1.5000    0.0000    0.0000 C   0  0  0  0  0  0  0  0  0  0  0  0
   -0.7500   -1.2990    0.0000 C   0  0  0  0  0  0  0  0  0  0  0  0
   -1.9635   -2.1807    0.0000 C   0  0  0  0  0  0  0  0  0  0  0  0
   -2.9672   -1.0660    0.0000 C   0  0  0  0  0  0  0  0  0  0  0  0
   -4.4344   -1.3779    0.0000 C   0  0  0  0  0  0  0  0  0  0  0  0
   -4.8980   -2.8045    0.0000 C   0  0  0  0  0  0  0  0  0  0  0  0
   -3.8943   -3.9192    0.0000 C   0  0  0  0  0  0  0  0  0  0  0  0
   -2.4271   -3.6073    0.0000 C   0  0  0  0  0  0  0  0  0  0  0  0
   -1.9635   -5.0339    0.0000 C   0  0  0  0  0  0  0  0  0  0  0  0
   -3.3338   -5.6440    0.0000 C   0  0  0  0  0  0  0  0  0  0  0  0
   -3.4906   -7.1358    0.0000 C   0  0  0  0  0  0  0  0  0  0  0  0
   -2.2771   -8.0175    0.0000 C   0  0  0  0  0  0  0  0  0  0  0  0
   -0.9068   -7.4073    0.0000 C   0  0  0  0  0  0  0  0  0  0  0  0
   -0.7500   -5.9156    0.0000 C   0  0  0  0  0  0  0  0  0  0  0  0
  1  2  1  0
  2  3  1  0
  3  4  2  0
  4  5  1  0
  5  6  1  0
  6  7  2  0
  6  8  1  0
  8  9  1  0
  9 10  2  0
 10 11  1  0
 11 12  2  0
 12 13  1  0
 13 14  1  0
 14 15  1  0
 15 16  1  0
 16 17  1  0
 17 18  1  0
 18 19  2  0
 18 20  1  0
 20 21  1  0
 21 22  2  0
 22 23  1  0
 23 24  2  0
 24 25  1  0
 25 26  2  0
 17 27  1  0
 27 28  2  0
  5 29  1  0
 29 30  2  0
 30 31  1  0
 31 32  2  0
 32 33  1  0
 33 34  2  0
 34 35  1  0
 35 36  2  0
 36 37  1  0
 37 38  2  0
 38 39  1  0
 39 40  2  0
 40 41  1  0
 41 42  2  0
 42 43  1  0
 43 44  2  0
 44 45  1  0
 45 46  2  0
 46  2  1  0
 13  9  1  0
 27 14  1  0
 34 29  1  0
 40 35  1  0
 46 41  1  0
 26 21  1  0
M  END
>  <Title>  (1340) 
idABXPgen14

$$$$

     RDKit          2D

  9  9  0  0  0  0  0  0  0  0999 V2000
    4.5000   -2.5981    0.0000 N   0  0  0  0  0  0  0  0  0  0  0  0
    3.7500   -1.2990    0.0000 C   0  0  0  0  0  0  0  0  0  0  0  0
    3.0000    0.0000    0.0000 C   0  0  0  0  0  0  0  0  0  0  0  0
    1.5000    0.0000    0.0000 C   0  0  0  0  0  0  0  0  0  0  0  0
    0.7500   -1.2990    0.0000 C   0  0  0  0  0  0  0  0  0  0  0  0
   -0.7500   -1.2990    0.0000 C   0  0  0  0  0  0  0  0  0  0  0  0
   -1.5000    0.0000    0.0000 C   0  0  0  0  0  0  0  0  0  0  0  0
   -0.7500    1.2990    0.0000 C   0  0  0  0  0  0  0  0  0  0  0  0
    0.7500    1.2990    0.0000 C   0  0  0  0  0  0  0  0  0  0  0  0
  1  2  3  0
  2  3  1  0
  3  4  1  0
  4  5  2  0
  5  6  1  0
  6  7  2  0
  7  8  1  0
  8  9  2  0
  9  4  1  0
M  END
>  <Title>  (1341) 
idABXQgen14

$$$$

     RDKit          2D

  8  7  0  0  0  0  0  0  0  0999 V2000
    0.0000    0.0000    0.0000 C   0  0  0  0  0  0  0  0  0  0  0  0
    1.2990    0.7500    0.0000 C   0  0  0  0  0  0  0  0  0  0  0  0
    2.5981   -0.0000    0.0000 C   0  0  0  0  0  0  0  0  0  0  0  0
    3.8971    0.7500    0.0000 C   0  0  0  0  0  0  0  0  0  0  0  0
    5.1962    1.5000    0.0000 C   0  0  0  0  0  0  0  0  0  0  0  0
    6.4952    2.2500    0.0000 C   0  0  0  0  0  0  0  0  0  0  0  0
    7.7942    1.5000    0.0000 C   0  0  0  0  0  0  0  0  0  0  0  0
    6.4952    3.7500    0.0000 O   0  0  0  0  0  0  0  0  0  0  0  0
  1  2  1  0
  2  3  1  0
  3  4  1  0
  4  5  3  0
  5  6  1  0
  6  7  1  0
  6  8  2  0
M  END
>  <Title>  (1342) 
idABXRgen14

$$$$

     RDKit          2D

 75 75  0  0  0  0  0  0  0  0999 V2000
  103.5000    0.0000    0.0000 C   0  0  0  0  0  0  0  0  0  0  0  0
  102.0000    0.0000    0.0000 C   0  0  0  0  0  0  0  0  0  0  0  0
  100.5000    0.0000    0.0000 C   0  0  0  0  0  0  0  0  0  0  0  0
   99.0000    0.0000    0.0000 C   0  0  0  0  0  0  0  0  0  0  0  0
   97.5000    0.0000    0.0000 C   0  0  0  0  0  0  0  0  0  0  0  0
   96.0000    0.0000    0.0000 C   0  0  0  0  0  0  0  0  0  0  0  0
   94.5000    0.0000    0.0000 C   0  0  0  0  0  0  0  0  0  0  0  0
   93.0000    0.0000    0.0000 C   0  0  0  0  0  0  0  0  0  0  0  0
   91.5000    0.0000    0.0000 C   0  0  0  0  0  0  0  0  0  0  0  0
   90.0000    0.0000    0.0000 C   0  0  0  0  0  0  0  0  0  0  0  0
   88.5000    0.0000    0.0000 C   0  0  0  0  0  0  0  0  0  0  0  0
   87.0000    0.0000    0.0000 C   0  0  0  0  0  0  0  0  0  0  0  0
   85.5000    0.0000    0.0000 C   0  0  0  0  0  0  0  0  0  0  0  0
   84.0000    0.0000    0.0000 C   0  0  0  0  0  0  0  0  0  0  0  0
   82.5000    0.0000    0.0000 C   0  0  0  0  0  0  0  0  0  0  0  0
   81.0000    0.0000    0.0000 C   0  0  0  0  0  0  0  0  0  0  0  0
   79.5000    0.0000    0.0000 C   0  0  0  0  0  0  0  0  0  0  0  0
   78.0000    0.0000    0.0000 C   0  0  0  0  0  0  0  0  0  0  0  0
   76.5000    0.0000    0.0000 C   0  0  0  0  0  0  0  0  0  0  0  0
   75.0000    0.0000    0.0000 C   0  0  0  0  0  0  0  0  0  0  0  0
   73.5000    0.0000    0.0000 C   0  0  0  0  0  0  0  0  0  0  0  0
   72.0000    0.0000    0.0000 C   0  0  0  0  0  0  0  0  0  0  0  0
   70.5000    0.0000    0.0000 C   0  0  0  0  0  0  0  0  0  0  0  0
   69.0000    0.0000    0.0000 C   0  0  0  0  0  0  0  0  0  0  0  0
   67.5000    0.0000    0.0000 C   0  0  0  0  0  0  0  0  0  0  0  0
   66.0000    0.0000    0.0000 C   0  0  0  0  0  0  0  0  0  0  0  0
   64.5000    0.0000    0.0000 C   0  0  0  0  0  0  0  0  0  0  0  0
   63.0000    0.0000    0.0000 C   0  0  0  0  0  0  0  0  0  0  0  0
   61.5000    0.0000    0.0000 C   0  0  0  0  0  0  0  0  0  0  0  0
   60.0000    0.0000    0.0000 C   0  0  0  0  0  0  0  0  0  0  0  0
   58.5000    0.0000    0.0000 C   0  0  0  0  0  0  0  0  0  0  0  0
   57.0000    0.0000    0.0000 C   0  0  0  0  0  0  0  0  0  0  0  0
   55.5000    0.0000    0.0000 C   0  0  0  0  0  0  0  0  0  0  0  0
   54.0000    0.0000    0.0000 C   0  0  0  0  0  0  0  0  0  0  0  0
   52.5000    0.0000    0.0000 C   0  0  0  0  0  0  0  0  0  0  0  0
   51.0000    0.0000    0.0000 C   0  0  0  0  0  0  0  0  0  0  0  0
   49.5000    0.0000    0.0000 C   0  0  0  0  0  0  0  0  0  0  0  0
   48.0000    0.0000    0.0000 C   0  0  0  0  0  0  0  0  0  0  0  0
   46.5000    0.0000    0.0000 C   0  0  0  0  0  0  0  0  0  0  0  0
   45.0000    0.0000    0.0000 C   0  0  0  0  0  0  0  0  0  0  0  0
   43.5000    0.0000    0.0000 C   0  0  0  0  0  0  0  0  0  0  0  0
   42.0000    0.0000    0.0000 C   0  0  0  0  0  0  0  0  0  0  0  0
   40.5000    0.0000    0.0000 C   0  0  0  0  0  0  0  0  0  0  0  0
   39.0000    0.0000    0.0000 C   0  0  0  0  0  0  0  0  0  0  0  0
   37.5000    0.0000    0.0000 C   0  0  0  0  0  0  0  0  0  0  0  0
   36.0000    0.0000    0.0000 C   0  0  0  0  0  0  0  0  0  0  0  0
   34.5000    0.0000    0.0000 C   0  0  0  0  0  0  0  0  0  0  0  0
   33.0000    0.0000    0.0000 C   0  0  0  0  0  0  0  0  0  0  0  0
   31.5000    0.0000    0.0000 C   0  0  0  0  0  0  0  0  0  0  0  0
   30.0000    0.0000    0.0000 C   0  0  0  0  0  0  0  0  0  0  0  0
   28.5000    0.0000    0.0000 C   0  0  0  0  0  0  0  0  0  0  0  0
   27.0000    0.0000    0.0000 C   0  0  0  0  0  0  0  0  0  0  0  0
   25.5000    0.0000    0.0000 C   0  0  0  0  0  0  0  0  0  0  0  0
   24.0000    0.0000    0.0000 C   0  0  0  0  0  0  0  0  0  0  0  0
   22.5000    0.0000    0.0000 C   0  0  0  0  0  0  0  0  0  0  0  0
   21.0000    0.0000    0.0000 C   0  0  0  0  0  0  0  0  0  0  0  0
   19.5000    0.0000    0.0000 C   0  0  0  0  0  0  0  0  0  0  0  0
   18.0000    0.0000    0.0000 C   0  0  0  0  0  0  0  0  0  0  0  0
   16.5000    0.0000    0.0000 C   0  0  0  0  0  0  0  0  0  0  0  0
   15.0000    0.0000    0.0000 C   0  0  0  0  0  0  0  0  0  0  0  0
   13.5000    0.0000    0.0000 C   0  0  0  0  0  0  0  0  0  0  0  0
   12.0000    0.0000    0.0000 C   0  0  0  0  0  0  0  0  0  0  0  0
   10.5000    0.0000    0.0000 C   0  0  0  0  0  0  0  0  0  0  0  0
    9.0000    0.0000    0.0000 C   0  0  0  0  0  0  0  0  0  0  0  0
    7.5000    0.0000    0.0000 C   0  0  0  0  0  0  0  0  0  0  0  0
    6.0000    0.0000    0.0000 C   0  0  0  0  0  0  0  0  0  0  0  0
    4.5000    0.0000    0.0000 C   0  0  0  0  0  0  0  0  0  0  0  0
    3.0000    0.0000    0.0000 C   0  0  0  0  0  0  0  0  0  0  0  0
    1.5000    0.0000    0.0000 C   0  0  0  0  0  0  0  0  0  0  0  0
    0.7500   -1.2990    0.0000 C   0  0  0  0  0  0  0  0  0  0  0  0
   -0.7500   -1.2990    0.0000 C   0  0  0  0  0  0  0  0  0  0  0  0
   -1.5000    0.0000    0.0000 C   0  0  0  0  0  0  0  0  0  0  0  0
   -3.0000    0.0000    0.0000 C   0  0  0  0  0  0  0  0  0  0  0  0
   -0.7500    1.2990    0.0000 C   0  0  0  0  0  0  0  0  0  0  0  0
    0.7500    1.2990    0.0000 C   0  0  0  0  0  0  0  0  0  0  0  0
  1  2  3  0
  2  3  1  0
  3  4  3  0
  4  5  1  0
  5  6  3  0
  6  7  1  0
  7  8  3  0
  8  9  1  0
  9 10  3  0
 10 11  1  0
 11 12  3  0
 12 13  1  0
 13 14  3  0
 14 15  1  0
 15 16  3  0
 16 17  1  0
 17 18  3  0
 18 19  1  0
 19 20  3  0
 20 21  1  0
 21 22  3  0
 22 23  1  0
 23 24  3  0
 24 25  1  0
 25 26  3  0
 26 27  1  0
 27 28  3  0
 28 29  1  0
 29 30  3  0
 30 31  1  0
 31 32  3  0
 32 33  1  0
 33 34  3  0
 34 35  1  0
 35 36  3  0
 36 37  1  0
 37 38  3  0
 38 39  1  0
 39 40  3  0
 40 41  1  0
 41 42  3  0
 42 43  1  0
 43 44  3  0
 44 45  1  0
 45 46  3  0
 46 47  1  0
 47 48  3  0
 48 49  1  0
 49 50  3  0
 50 51  1  0
 51 52  3  0
 52 53  1  0
 53 54  3  0
 54 55  1  0
 55 56  3  0
 56 57  1  0
 57 58  3  0
 58 59  1  0
 59 60  3  0
 60 61  1  0
 61 62  3  0
 62 63  1  0
 63 64  3  0
 64 65  1  0
 65 66  3  0
 66 67  1  0
 67 68  3  0
 68 69  1  0
 69 70  2  0
 70 71  1  0
 71 72  2  0
 72 73  1  0
 72 74  1  0
 74 75  2  0
 75 69  1  0
M  END
>  <Title>  (1343) 
idABXSgen14

$$$$

     RDKit          2D

 10  9  0  0  0  0  0  0  0  0999 V2000
    0.0000    0.0000    0.0000 C   0  0  0  0  0  0  0  0  0  0  0  0
    1.2990    0.7500    0.0000 C   0  0  0  0  0  0  0  0  0  0  0  0
    2.5981   -0.0000    0.0000 C   0  0  0  0  0  0  0  0  0  0  0  0
    3.8971    0.7500    0.0000 C   0  0  0  0  0  0  0  0  0  0  0  0
    5.1962   -0.0000    0.0000 C   0  0  0  0  0  0  0  0  0  0  0  0
    6.4952    0.7500    0.0000 C   0  0  0  0  0  0  0  0  0  0  0  0
    7.7942   -0.0000    0.0000 C   0  0  0  0  0  0  0  0  0  0  0  0
    9.0933    0.7500    0.0000 C   0  0  0  0  0  0  0  0  0  0  0  0
   10.3923   -0.0000    0.0000 C   0  0  0  0  0  0  0  0  0  0  0  0
   11.6913    0.7500    0.0000 C   0  0  0  0  0  0  0  0  0  0  0  0
  1  2  1  0
  2  3  2  3
  3  4  1  0
  4  5  1  0
  5  6  1  0
  6  7  1  0
  7  8  1  0
  8  9  1  0
  9 10  1  0
M  END
>  <Title>  (1344) 
idABXTgen14

$$$$
